/*---------------------------------------------------------------------------*\
  =========                 |
  \\      /  F ield         | OpenFOAM: The Open Source CFD Toolbox
   \\    /   O peration     | Website:  https://openfoam.org
    \\  /    A nd           | Version:  13
     \\/     M anipulation  |
\*---------------------------------------------------------------------------*/
Build  : 13-65eda17ad4ca
Exec   : foamRun -parallel
Date   : Oct 06 2025
Time   : 13:36:54
Host   : "HIAS-Physics-2022"
PID    : 44115
I/O    : uncollated
Case   : /home/jnchen/BikeWheel/BikeWheel_OpenFOAM/40mm/bikewheel_30
nProcs : 6
Slaves : 
5
(
"HIAS-Physics-2022.44116"
"HIAS-Physics-2022.44117"
"HIAS-Physics-2022.44118"
"HIAS-Physics-2022.44119"
"HIAS-Physics-2022.44120"
)

Pstream initialised with:
    floatTransfer      : false
    nProcsSimpleSum    : 0
    commsType          : nonBlocking
    polling iterations : 0
sigFpe : Enabling floating point exception trapping (FOAM_SIGFPE).
fileModificationChecking : Monitoring run-time modified files using timeStampMaster (fileModificationSkew 10)
allowSystemOperations : Allowing user-supplied system call operations

// * * * * * * * * * * * * * * * * * * * * * * * * * * * * * * * * * * * * * //
Create time

Create mesh for time = 0

Selecting solver incompressibleFluid
Selecting viscosity model constant
Selecting turbulence model type RAS
    Selecting RAS turbulence model kOmegaSST
No MRF models present

Selecting patchDistMethod meshWave

SIMPLE: No convergence criteria found


SIMPLE: Operating solver in steady-state mode with 1 outer corrector
SIMPLE: Operating solver in SIMPLE mode



Starting time loop

Reading surface description:
    yNormal

streamlines streamlines:
    automatic track length specified through number of sub cycles : 5

forcesBase forceCoeffs:
    Not including porosity effects
forces forceCoeffs:
    Not including porosity effects
forceCoeffs forceCoeffs:
    Not including porosity effects
streamlines streamlines write:
    Seeded 20 particles
    Sampled 25145 locations

forceCoeffs forceCoeffs write:
    Cm    = -3.31859e-05
    Cd    = 0.00913964
    Cl    = -1.58099e-05
    Cl(f) = -4.10908e-05
    Cl(r) = 2.52809e-05

Time = 1s

smoothSolver:  Solving for Ux, Initial residual = 0.209635, Final residual = 0.0198826, No Iterations 5
smoothSolver:  Solving for Uy, Initial residual = 0.471401, Final residual = 0.0318582, No Iterations 5
smoothSolver:  Solving for Uz, Initial residual = 0.630168, Final residual = 0.0457971, No Iterations 4
GAMG:  Solving for p, Initial residual = 1, Final residual = 0.00738854, No Iterations 4
time step continuity errors : sum local = 0.000452543, global = -6.06734e-05, cumulative = -6.06734e-05
smoothSolver:  Solving for omega, Initial residual = 0.00109823, Final residual = 7.29763e-05, No Iterations 2
smoothSolver:  Solving for k, Initial residual = 1, Final residual = 0.0346336, No Iterations 3
ExecutionTime = 4.64044 s  ClockTime = 11 s

forceCoeffs forceCoeffs write:
    Cm    = 0.000324459
    Cd    = 0.023608
    Cl    = 0.000452874
    Cl(f) = 0.000550896
    Cl(r) = -9.80216e-05

Time = 2s

smoothSolver:  Solving for Ux, Initial residual = 0.121957, Final residual = 0.00959292, No Iterations 7
smoothSolver:  Solving for Uy, Initial residual = 0.246633, Final residual = 0.0218122, No Iterations 6
smoothSolver:  Solving for Uz, Initial residual = 0.299729, Final residual = 0.0266637, No Iterations 5
GAMG:  Solving for p, Initial residual = 0.0385535, Final residual = 0.000344525, No Iterations 4
time step continuity errors : sum local = 0.00018623, global = -7.9361e-05, cumulative = -0.000140034
smoothSolver:  Solving for omega, Initial residual = 0.000664915, Final residual = 4.96997e-05, No Iterations 2
smoothSolver:  Solving for k, Initial residual = 0.0648165, Final residual = 0.00221544, No Iterations 3
ExecutionTime = 6.02043 s  ClockTime = 12 s

forceCoeffs forceCoeffs write:
    Cm    = 0.000653525
    Cd    = 0.0354416
    Cl    = 0.000846404
    Cl(f) = 0.00107673
    Cl(r) = -0.000230323

Time = 3s

smoothSolver:  Solving for Ux, Initial residual = 0.0780515, Final residual = 0.00661442, No Iterations 8
smoothSolver:  Solving for Uy, Initial residual = 0.158288, Final residual = 0.0144353, No Iterations 7
smoothSolver:  Solving for Uz, Initial residual = 0.156907, Final residual = 0.0125476, No Iterations 7
GAMG:  Solving for p, Initial residual = 0.0187851, Final residual = 0.000150155, No Iterations 4
time step continuity errors : sum local = 0.000103293, global = 4.5879e-07, cumulative = -0.000139576
smoothSolver:  Solving for omega, Initial residual = 0.000397213, Final residual = 3.28794e-05, No Iterations 2
smoothSolver:  Solving for k, Initial residual = 0.0234844, Final residual = 0.000825188, No Iterations 3
ExecutionTime = 7.23698 s  ClockTime = 14 s

forceCoeffs forceCoeffs write:
    Cm    = 0.000904182
    Cd    = 0.0444746
    Cl    = 0.00115099
    Cl(f) = 0.00147968
    Cl(r) = -0.000328688

Time = 4s

smoothSolver:  Solving for Ux, Initial residual = 0.0588558, Final residual = 0.00463842, No Iterations 9
smoothSolver:  Solving for Uy, Initial residual = 0.115977, Final residual = 0.0100134, No Iterations 8
smoothSolver:  Solving for Uz, Initial residual = 0.100977, Final residual = 0.00832805, No Iterations 8
GAMG:  Solving for p, Initial residual = 0.0170098, Final residual = 0.00014308, No Iterations 4
time step continuity errors : sum local = 0.000100588, global = 3.80441e-05, cumulative = -0.000101532
smoothSolver:  Solving for omega, Initial residual = 0.000336597, Final residual = 2.93268e-05, No Iterations 2
smoothSolver:  Solving for k, Initial residual = 0.0119121, Final residual = 0.000427542, No Iterations 3
ExecutionTime = 8.52028 s  ClockTime = 15 s

forceCoeffs forceCoeffs write:
    Cm    = 0.00111604
    Cd    = 0.0505241
    Cl    = 0.00139965
    Cl(f) = 0.00181586
    Cl(r) = -0.000416215

Time = 5s

smoothSolver:  Solving for Ux, Initial residual = 0.049265, Final residual = 0.00421266, No Iterations 9
smoothSolver:  Solving for Uy, Initial residual = 0.104304, Final residual = 0.00932947, No Iterations 8
smoothSolver:  Solving for Uz, Initial residual = 0.0850253, Final residual = 0.0076812, No Iterations 8
GAMG:  Solving for p, Initial residual = 0.0174397, Final residual = 0.000147783, No Iterations 4
time step continuity errors : sum local = 9.69442e-05, global = 4.3829e-05, cumulative = -5.77025e-05
smoothSolver:  Solving for omega, Initial residual = 0.000285431, Final residual = 2.52995e-05, No Iterations 2
smoothSolver:  Solving for k, Initial residual = 0.00792057, Final residual = 0.00028994, No Iterations 3
ExecutionTime = 9.77063 s  ClockTime = 16 s

forceCoeffs forceCoeffs write:
    Cm    = 0.00131139
    Cd    = 0.0543066
    Cl    = 0.00161979
    Cl(f) = 0.00212129
    Cl(r) = -0.000501496

Time = 6s

smoothSolver:  Solving for Ux, Initial residual = 0.0439589, Final residual = 0.00382869, No Iterations 9
smoothSolver:  Solving for Uy, Initial residual = 0.10342, Final residual = 0.00917524, No Iterations 8
smoothSolver:  Solving for Uz, Initial residual = 0.0809315, Final residual = 0.00751897, No Iterations 8
GAMG:  Solving for p, Initial residual = 0.0183726, Final residual = 0.000157222, No Iterations 4
time step continuity errors : sum local = 9.20985e-05, global = 4.02899e-05, cumulative = -1.74126e-05
smoothSolver:  Solving for omega, Initial residual = 0.000241291, Final residual = 2.21427e-05, No Iterations 2
smoothSolver:  Solving for k, Initial residual = 0.00607385, Final residual = 0.000226425, No Iterations 3
ExecutionTime = 10.8114 s  ClockTime = 17 s

forceCoeffs forceCoeffs write:
    Cm    = 0.00152672
    Cd    = 0.056482
    Cl    = 0.0018485
    Cl(f) = 0.00245097
    Cl(r) = -0.000602474

Time = 7s

smoothSolver:  Solving for Ux, Initial residual = 0.0391255, Final residual = 0.0034487, No Iterations 9
smoothSolver:  Solving for Uy, Initial residual = 0.101396, Final residual = 0.00902362, No Iterations 8
smoothSolver:  Solving for Uz, Initial residual = 0.0791998, Final residual = 0.00750811, No Iterations 8
GAMG:  Solving for p, Initial residual = 0.0192906, Final residual = 0.000167618, No Iterations 4
time step continuity errors : sum local = 8.56626e-05, global = 3.41954e-05, cumulative = 1.67828e-05
smoothSolver:  Solving for omega, Initial residual = 0.000207712, Final residual = 1.97e-05, No Iterations 2
smoothSolver:  Solving for k, Initial residual = 0.00504892, Final residual = 0.000190845, No Iterations 3
ExecutionTime = 11.8768 s  ClockTime = 18 s

forceCoeffs forceCoeffs write:
    Cm    = 0.00173298
    Cd    = 0.05763
    Cl    = 0.00205828
    Cl(f) = 0.00276212
    Cl(r) = -0.000703844

Time = 8s

smoothSolver:  Solving for Ux, Initial residual = 0.0342355, Final residual = 0.00308979, No Iterations 9
smoothSolver:  Solving for Uy, Initial residual = 0.0979223, Final residual = 0.00879175, No Iterations 8
smoothSolver:  Solving for Uz, Initial residual = 0.0773495, Final residual = 0.00752846, No Iterations 8
GAMG:  Solving for p, Initial residual = 0.0202136, Final residual = 0.000175189, No Iterations 4
time step continuity errors : sum local = 7.73081e-05, global = 2.73733e-05, cumulative = 4.41561e-05
smoothSolver:  Solving for omega, Initial residual = 0.00018409, Final residual = 1.77469e-05, No Iterations 2
smoothSolver:  Solving for k, Initial residual = 0.00441775, Final residual = 0.000168332, No Iterations 3
ExecutionTime = 12.9728 s  ClockTime = 19 s

forceCoeffs forceCoeffs write:
    Cm    = 0.00190033
    Cd    = 0.0581494
    Cl    = 0.00221995
    Cl(f) = 0.00301031
    Cl(r) = -0.000790355

Time = 9s

smoothSolver:  Solving for Ux, Initial residual = 0.0296381, Final residual = 0.00276186, No Iterations 9
smoothSolver:  Solving for Uy, Initial residual = 0.0932094, Final residual = 0.00853625, No Iterations 8
smoothSolver:  Solving for Uz, Initial residual = 0.075142, Final residual = 0.00587148, No Iterations 9
GAMG:  Solving for p, Initial residual = 0.021137, Final residual = 0.000182186, No Iterations 4
time step continuity errors : sum local = 6.89825e-05, global = 1.96514e-05, cumulative = 6.38074e-05
smoothSolver:  Solving for omega, Initial residual = 0.000166455, Final residual = 1.60886e-05, No Iterations 2
smoothSolver:  Solving for k, Initial residual = 0.00398565, Final residual = 0.000152077, No Iterations 3
ExecutionTime = 13.9953 s  ClockTime = 21 s

forceCoeffs forceCoeffs write:
    Cm    = 0.00199756
    Cd    = 0.0582546
    Cl    = 0.00230668
    Cl(f) = 0.0031509
    Cl(r) = -0.000844221

Time = 10s

smoothSolver:  Solving for Ux, Initial residual = 0.0255917, Final residual = 0.00246917, No Iterations 9
smoothSolver:  Solving for Uy, Initial residual = 0.0879852, Final residual = 0.00826423, No Iterations 8
smoothSolver:  Solving for Uz, Initial residual = 0.0728084, Final residual = 0.00589563, No Iterations 9
GAMG:  Solving for p, Initial residual = 0.0220959, Final residual = 0.000187694, No Iterations 4
time step continuity errors : sum local = 6.11095e-05, global = 1.25253e-05, cumulative = 7.63327e-05
smoothSolver:  Solving for omega, Initial residual = 0.000151146, Final residual = 1.47984e-05, No Iterations 2
smoothSolver:  Solving for k, Initial residual = 0.00369322, Final residual = 0.000140216, No Iterations 3
ExecutionTime = 14.9756 s  ClockTime = 21 s

forceCoeffs forceCoeffs write:
    Cm    = 0.00203944
    Cd    = 0.0580988
    Cl    = 0.00233336
    Cl(f) = 0.00320612
    Cl(r) = -0.000872759

Time = 11s

smoothSolver:  Solving for Ux, Initial residual = 0.0221315, Final residual = 0.0022117, No Iterations 9
smoothSolver:  Solving for Uy, Initial residual = 0.0828131, Final residual = 0.00802025, No Iterations 8
smoothSolver:  Solving for Uz, Initial residual = 0.0706396, Final residual = 0.00592132, No Iterations 9
GAMG:  Solving for p, Initial residual = 0.0231152, Final residual = 0.000192167, No Iterations 4
time step continuity errors : sum local = 5.40816e-05, global = 5.61377e-06, cumulative = 8.19465e-05
smoothSolver:  Solving for omega, Initial residual = 0.000139523, Final residual = 1.36354e-05, No Iterations 2
smoothSolver:  Solving for k, Initial residual = 0.0034718, Final residual = 0.000130442, No Iterations 3
ExecutionTime = 16.002 s  ClockTime = 23 s

forceCoeffs forceCoeffs write:
    Cm    = 0.00200006
    Cd    = 0.057779
    Cl    = 0.00227695
    Cl(f) = 0.00313854
    Cl(r) = -0.000861587

Time = 12s

smoothSolver:  Solving for Ux, Initial residual = 0.0192803, Final residual = 0.00156662, No Iterations 10
smoothSolver:  Solving for Uy, Initial residual = 0.078339, Final residual = 0.00780758, No Iterations 8
smoothSolver:  Solving for Uz, Initial residual = 0.0688878, Final residual = 0.0059571, No Iterations 9
GAMG:  Solving for p, Initial residual = 0.0241891, Final residual = 0.000206785, No Iterations 4
time step continuity errors : sum local = 5.06842e-05, global = 4.61373e-06, cumulative = 8.65602e-05
smoothSolver:  Solving for omega, Initial residual = 0.000129226, Final residual = 1.26494e-05, No Iterations 2
smoothSolver:  Solving for k, Initial residual = 0.00328727, Final residual = 0.000121739, No Iterations 3
ExecutionTime = 17.0097 s  ClockTime = 24 s

forceCoeffs forceCoeffs write:
    Cm    = 0.00192553
    Cd    = 0.0573632
    Cl    = 0.00218532
    Cl(f) = 0.00301819
    Cl(r) = -0.000832875

Time = 13s

smoothSolver:  Solving for Ux, Initial residual = 0.016958, Final residual = 0.0014125, No Iterations 10
smoothSolver:  Solving for Uy, Initial residual = 0.0752902, Final residual = 0.00599095, No Iterations 9
smoothSolver:  Solving for Uz, Initial residual = 0.0677695, Final residual = 0.00603563, No Iterations 9
GAMG:  Solving for p, Initial residual = 0.0252048, Final residual = 0.000192079, No Iterations 4
time step continuity errors : sum local = 4.129e-05, global = -5.58388e-07, cumulative = 8.60018e-05
smoothSolver:  Solving for omega, Initial residual = 0.000120001, Final residual = 1.17323e-05, No Iterations 2
smoothSolver:  Solving for k, Initial residual = 0.00313169, Final residual = 0.000114072, No Iterations 3
ExecutionTime = 18.0934 s  ClockTime = 25 s

forceCoeffs forceCoeffs write:
    Cm    = 0.00183902
    Cd    = 0.05691
    Cl    = 0.0020841
    Cl(f) = 0.00288108
    Cl(r) = -0.000796974

Time = 14s

smoothSolver:  Solving for Ux, Initial residual = 0.0150719, Final residual = 0.0012779, No Iterations 10
smoothSolver:  Solving for Uy, Initial residual = 0.0718832, Final residual = 0.00580067, No Iterations 9
smoothSolver:  Solving for Uz, Initial residual = 0.0667768, Final residual = 0.00608549, No Iterations 9
GAMG:  Solving for p, Initial residual = 0.0261012, Final residual = 0.000198411, No Iterations 4
time step continuity errors : sum local = 3.77971e-05, global = -6.82396e-07, cumulative = 8.53195e-05
smoothSolver:  Solving for omega, Initial residual = 0.000112533, Final residual = 1.10085e-05, No Iterations 2
smoothSolver:  Solving for k, Initial residual = 0.00299864, Final residual = 0.000107239, No Iterations 3
ExecutionTime = 19.1315 s  ClockTime = 26 s

forceCoeffs forceCoeffs write:
    Cm    = 0.00174954
    Cd    = 0.0564706
    Cl    = 0.00198031
    Cl(f) = 0.00273969
    Cl(r) = -0.00075938

Time = 15s

smoothSolver:  Solving for Ux, Initial residual = 0.0135571, Final residual = 0.00116171, No Iterations 10
smoothSolver:  Solving for Uy, Initial residual = 0.069167, Final residual = 0.00564295, No Iterations 9
smoothSolver:  Solving for Uz, Initial residual = 0.0657131, Final residual = 0.00611213, No Iterations 9
GAMG:  Solving for p, Initial residual = 0.0268442, Final residual = 0.000201647, No Iterations 4
time step continuity errors : sum local = 3.43601e-05, global = -5.51604e-07, cumulative = 8.47678e-05
smoothSolver:  Solving for omega, Initial residual = 0.000105472, Final residual = 1.02534e-05, No Iterations 2
smoothSolver:  Solving for k, Initial residual = 0.00286066, Final residual = 0.000100386, No Iterations 3
ExecutionTime = 20.297 s  ClockTime = 27 s

forceCoeffs forceCoeffs write:
    Cm    = 0.00167539
    Cd    = 0.0560471
    Cl    = 0.00189297
    Cl(f) = 0.00262187
    Cl(r) = -0.000728902

Time = 16s

smoothSolver:  Solving for Ux, Initial residual = 0.012304, Final residual = 0.00106076, No Iterations 10
smoothSolver:  Solving for Uy, Initial residual = 0.0669887, Final residual = 0.00551327, No Iterations 9
smoothSolver:  Solving for Uz, Initial residual = 0.0647513, Final residual = 0.00612473, No Iterations 9
GAMG:  Solving for p, Initial residual = 0.0274655, Final residual = 0.000202397, No Iterations 4
time step continuity errors : sum local = 3.11102e-05, global = -5.29859e-07, cumulative = 8.4238e-05
smoothSolver:  Solving for omega, Initial residual = 9.93304e-05, Final residual = 9.62937e-06, No Iterations 2
smoothSolver:  Solving for k, Initial residual = 0.00273973, Final residual = 9.44044e-05, No Iterations 3
ExecutionTime = 21.3135 s  ClockTime = 28 s

forceCoeffs forceCoeffs write:
    Cm    = 0.00160948
    Cd    = 0.0556711
    Cl    = 0.00181937
    Cl(f) = 0.00251917
    Cl(r) = -0.000699799

Time = 17s

smoothSolver:  Solving for Ux, Initial residual = 0.0112339, Final residual = 0.000971251, No Iterations 10
smoothSolver:  Solving for Uy, Initial residual = 0.0651974, Final residual = 0.00539502, No Iterations 9
smoothSolver:  Solving for Uz, Initial residual = 0.0637709, Final residual = 0.00611278, No Iterations 9
GAMG:  Solving for p, Initial residual = 0.0279604, Final residual = 0.000203058, No Iterations 4
time step continuity errors : sum local = 2.83446e-05, global = -6.81553e-07, cumulative = 8.35564e-05
smoothSolver:  Solving for omega, Initial residual = 9.38861e-05, Final residual = 9.07143e-06, No Iterations 2
smoothSolver:  Solving for k, Initial residual = 0.00261979, Final residual = 8.87132e-05, No Iterations 3
ExecutionTime = 22.3969 s  ClockTime = 29 s

forceCoeffs forceCoeffs write:
    Cm    = 0.00155136
    Cd    = 0.0553586
    Cl    = 0.00175478
    Cl(f) = 0.00242875
    Cl(r) = -0.000673973

Time = 18s

smoothSolver:  Solving for Ux, Initial residual = 0.0103049, Final residual = 0.000891007, No Iterations 10
smoothSolver:  Solving for Uy, Initial residual = 0.0636433, Final residual = 0.00527594, No Iterations 9
smoothSolver:  Solving for Uz, Initial residual = 0.0627243, Final residual = 0.00607106, No Iterations 9
GAMG:  Solving for p, Initial residual = 0.0283789, Final residual = 0.000203374, No Iterations 4
time step continuity errors : sum local = 2.59251e-05, global = -6.44003e-07, cumulative = 8.29124e-05
smoothSolver:  Solving for omega, Initial residual = 8.90555e-05, Final residual = 8.54343e-06, No Iterations 2
smoothSolver:  Solving for k, Initial residual = 0.00250061, Final residual = 8.33945e-05, No Iterations 3
ExecutionTime = 23.4583 s  ClockTime = 30 s

forceCoeffs forceCoeffs write:
    Cm    = 0.00149596
    Cd    = 0.0550985
    Cl    = 0.0016972
    Cl(f) = 0.00234456
    Cl(r) = -0.000647366

Time = 19s

smoothSolver:  Solving for Ux, Initial residual = 0.00947234, Final residual = 0.000818288, No Iterations 10
smoothSolver:  Solving for Uy, Initial residual = 0.0621866, Final residual = 0.00515407, No Iterations 9
smoothSolver:  Solving for Uz, Initial residual = 0.0616572, Final residual = 0.00600324, No Iterations 9
GAMG:  Solving for p, Initial residual = 0.0287069, Final residual = 0.000203725, No Iterations 4
time step continuity errors : sum local = 2.3836e-05, global = -6.29784e-07, cumulative = 8.22827e-05
smoothSolver:  Solving for omega, Initial residual = 8.4475e-05, Final residual = 8.08909e-06, No Iterations 2
smoothSolver:  Solving for k, Initial residual = 0.0023944, Final residual = 7.88167e-05, No Iterations 3
ExecutionTime = 24.5885 s  ClockTime = 31 s

forceCoeffs forceCoeffs write:
    Cm    = 0.00144383
    Cd    = 0.0549027
    Cl    = 0.00164433
    Cl(f) = 0.00226599
    Cl(r) = -0.000621664

Time = 20s

smoothSolver:  Solving for Ux, Initial residual = 0.00871897, Final residual = 0.000752186, No Iterations 10
smoothSolver:  Solving for Uy, Initial residual = 0.0608392, Final residual = 0.0050283, No Iterations 9
smoothSolver:  Solving for Uz, Initial residual = 0.0605746, Final residual = 0.0059169, No Iterations 9
GAMG:  Solving for p, Initial residual = 0.0280822, Final residual = 0.000197695, No Iterations 4
time step continuity errors : sum local = 2.19572e-05, global = -6.90887e-07, cumulative = 8.15918e-05
smoothSolver:  Solving for omega, Initial residual = 8.05073e-05, Final residual = 7.68164e-06, No Iterations 2
smoothSolver:  Solving for k, Initial residual = 0.00229024, Final residual = 7.45521e-05, No Iterations 3
ExecutionTime = 25.7778 s  ClockTime = 32 s

forceCoeffs forceCoeffs write:
    Cm    = 0.00139116
    Cd    = 0.0547588
    Cl    = 0.00159508
    Cl(f) = 0.0021887
    Cl(r) = -0.000593614

Time = 21s

smoothSolver:  Solving for Ux, Initial residual = 0.00803269, Final residual = 0.000691859, No Iterations 10
smoothSolver:  Solving for Uy, Initial residual = 0.0594688, Final residual = 0.00489622, No Iterations 9
smoothSolver:  Solving for Uz, Initial residual = 0.0594353, Final residual = 0.00581996, No Iterations 9
GAMG:  Solving for p, Initial residual = 0.0250534, Final residual = 0.000173868, No Iterations 4
time step continuity errors : sum local = 2.01279e-05, global = -6.87076e-07, cumulative = 8.09047e-05
smoothSolver:  Solving for omega, Initial residual = 7.68709e-05, Final residual = 7.31989e-06, No Iterations 2
smoothSolver:  Solving for k, Initial residual = 0.00219143, Final residual = 7.0682e-05, No Iterations 3
ExecutionTime = 26.9502 s  ClockTime = 33 s

forceCoeffs forceCoeffs write:
    Cm    = 0.00134441
    Cd    = 0.0546572
    Cl    = 0.00155205
    Cl(f) = 0.00212044
    Cl(r) = -0.000568386

Time = 22s

smoothSolver:  Solving for Ux, Initial residual = 0.00740209, Final residual = 0.000636681, No Iterations 10
smoothSolver:  Solving for Uy, Initial residual = 0.0580201, Final residual = 0.00475262, No Iterations 9
smoothSolver:  Solving for Uz, Initial residual = 0.0582369, Final residual = 0.00571649, No Iterations 9
GAMG:  Solving for p, Initial residual = 0.0221643, Final residual = 0.000150807, No Iterations 4
time step continuity errors : sum local = 1.83763e-05, global = -6.10308e-07, cumulative = 8.02944e-05
smoothSolver:  Solving for omega, Initial residual = 7.40119e-05, Final residual = 6.97501e-06, No Iterations 2
smoothSolver:  Solving for k, Initial residual = 0.00210194, Final residual = 6.73693e-05, No Iterations 3
ExecutionTime = 27.9874 s  ClockTime = 34 s

forceCoeffs forceCoeffs write:
    Cm    = 0.00130452
    Cd    = 0.0545917
    Cl    = 0.00151383
    Cl(f) = 0.00206143
    Cl(r) = -0.000547606

Time = 23s

smoothSolver:  Solving for Ux, Initial residual = 0.00682279, Final residual = 0.000585889, No Iterations 10
smoothSolver:  Solving for Uy, Initial residual = 0.056447, Final residual = 0.00459612, No Iterations 9
smoothSolver:  Solving for Uz, Initial residual = 0.056982, Final residual = 0.00560684, No Iterations 9
GAMG:  Solving for p, Initial residual = 0.0197072, Final residual = 0.000130779, No Iterations 4
time step continuity errors : sum local = 1.67042e-05, global = -4.91749e-07, cumulative = 7.98026e-05
smoothSolver:  Solving for omega, Initial residual = 7.08049e-05, Final residual = 6.68633e-06, No Iterations 2
smoothSolver:  Solving for k, Initial residual = 0.0020145, Final residual = 6.4239e-05, No Iterations 3
ExecutionTime = 29.063 s  ClockTime = 36 s

forceCoeffs forceCoeffs write:
    Cm    = 0.00126715
    Cd    = 0.0545518
    Cl    = 0.00148138
    Cl(f) = 0.00200785
    Cl(r) = -0.000526461

Time = 24s

smoothSolver:  Solving for Ux, Initial residual = 0.00629203, Final residual = 0.00053945, No Iterations 10
smoothSolver:  Solving for Uy, Initial residual = 0.054741, Final residual = 0.00442775, No Iterations 9
smoothSolver:  Solving for Uz, Initial residual = 0.0556974, Final residual = 0.00549127, No Iterations 9
GAMG:  Solving for p, Initial residual = 0.017668, Final residual = 0.000114164, No Iterations 4
time step continuity errors : sum local = 1.51916e-05, global = -4.41895e-07, cumulative = 7.93607e-05
smoothSolver:  Solving for omega, Initial residual = 6.83106e-05, Final residual = 6.41953e-06, No Iterations 2
smoothSolver:  Solving for k, Initial residual = 0.00193619, Final residual = 6.14982e-05, No Iterations 3
ExecutionTime = 30.1249 s  ClockTime = 37 s

forceCoeffs forceCoeffs write:
    Cm    = 0.00123869
    Cd    = 0.0545302
    Cl    = 0.00145493
    Cl(f) = 0.00196615
    Cl(r) = -0.000511224

Time = 25s

smoothSolver:  Solving for Ux, Initial residual = 0.00580364, Final residual = 0.000497287, No Iterations 10
smoothSolver:  Solving for Uy, Initial residual = 0.0528384, Final residual = 0.00424773, No Iterations 9
smoothSolver:  Solving for Uz, Initial residual = 0.0543544, Final residual = 0.00536226, No Iterations 9
GAMG:  Solving for p, Initial residual = 0.0159235, Final residual = 0.000100263, No Iterations 4
time step continuity errors : sum local = 1.38283e-05, global = -4.49057e-07, cumulative = 7.89117e-05
smoothSolver:  Solving for omega, Initial residual = 6.60626e-05, Final residual = 6.14854e-06, No Iterations 2
smoothSolver:  Solving for k, Initial residual = 0.00186485, Final residual = 5.90107e-05, No Iterations 3
ExecutionTime = 31.2985 s  ClockTime = 38 s

forceCoeffs forceCoeffs write:
    Cm    = 0.00121129
    Cd    = 0.0545256
    Cl    = 0.00143116
    Cl(f) = 0.00192687
    Cl(r) = -0.00049571

Time = 26s

smoothSolver:  Solving for Ux, Initial residual = 0.00535394, Final residual = 0.000458955, No Iterations 10
smoothSolver:  Solving for Uy, Initial residual = 0.0507293, Final residual = 0.00405879, No Iterations 9
smoothSolver:  Solving for Uz, Initial residual = 0.0529276, Final residual = 0.00522533, No Iterations 9
GAMG:  Solving for p, Initial residual = 0.014408, Final residual = 8.85389e-05, No Iterations 4
time step continuity errors : sum local = 1.26018e-05, global = -4.7472e-07, cumulative = 7.8437e-05
smoothSolver:  Solving for omega, Initial residual = 6.39475e-05, Final residual = 5.9338e-06, No Iterations 2
smoothSolver:  Solving for k, Initial residual = 0.00179962, Final residual = 5.6784e-05, No Iterations 3
ExecutionTime = 32.3658 s  ClockTime = 39 s

forceCoeffs forceCoeffs write:
    Cm    = 0.00118706
    Cd    = 0.0545267
    Cl    = 0.00141134
    Cl(f) = 0.00189273
    Cl(r) = -0.000481392

Time = 27s

smoothSolver:  Solving for Ux, Initial residual = 0.00494177, Final residual = 0.000423849, No Iterations 10
smoothSolver:  Solving for Uy, Initial residual = 0.048399, Final residual = 0.00386049, No Iterations 9
smoothSolver:  Solving for Uz, Initial residual = 0.0514472, Final residual = 0.00508311, No Iterations 9
GAMG:  Solving for p, Initial residual = 0.0130845, Final residual = 7.86212e-05, No Iterations 4
time step continuity errors : sum local = 1.15035e-05, global = -4.81491e-07, cumulative = 7.79555e-05
smoothSolver:  Solving for omega, Initial residual = 6.15171e-05, Final residual = 5.70498e-06, No Iterations 2
smoothSolver:  Solving for k, Initial residual = 0.00174003, Final residual = 5.4745e-05, No Iterations 3
ExecutionTime = 33.4743 s  ClockTime = 40 s

forceCoeffs forceCoeffs write:
    Cm    = 0.00116918
    Cd    = 0.054535
    Cl    = 0.00139561
    Cl(f) = 0.00186699
    Cl(r) = -0.000471378

Time = 28s

smoothSolver:  Solving for Ux, Initial residual = 0.00456501, Final residual = 0.000391884, No Iterations 10
smoothSolver:  Solving for Uy, Initial residual = 0.0459807, Final residual = 0.00365896, No Iterations 9
smoothSolver:  Solving for Uz, Initial residual = 0.0499124, Final residual = 0.00494169, No Iterations 9
GAMG:  Solving for p, Initial residual = 0.0119206, Final residual = 7.00824e-05, No Iterations 4
time step continuity errors : sum local = 1.05059e-05, global = -4.51012e-07, cumulative = 7.75045e-05
smoothSolver:  Solving for omega, Initial residual = 5.96883e-05, Final residual = 5.49668e-06, No Iterations 2
smoothSolver:  Solving for k, Initial residual = 0.00168602, Final residual = 5.29377e-05, No Iterations 3
ExecutionTime = 34.5623 s  ClockTime = 41 s

forceCoeffs forceCoeffs write:
    Cm    = 0.00115244
    Cd    = 0.0545482
    Cl    = 0.00138227
    Cl(f) = 0.00184358
    Cl(r) = -0.000461307

Time = 29s

smoothSolver:  Solving for Ux, Initial residual = 0.00422051, Final residual = 0.00036259, No Iterations 10
smoothSolver:  Solving for Uy, Initial residual = 0.0434636, Final residual = 0.00345555, No Iterations 9
smoothSolver:  Solving for Uz, Initial residual = 0.0483538, Final residual = 0.00479976, No Iterations 9
GAMG:  Solving for p, Initial residual = 0.0108871, Final residual = 6.27068e-05, No Iterations 4
time step continuity errors : sum local = 9.60261e-06, global = -4.21129e-07, cumulative = 7.70833e-05
smoothSolver:  Solving for omega, Initial residual = 5.78298e-05, Final residual = 5.29891e-06, No Iterations 2
smoothSolver:  Solving for k, Initial residual = 0.00163691, Final residual = 5.12659e-05, No Iterations 3
ExecutionTime = 35.6986 s  ClockTime = 42 s

forceCoeffs forceCoeffs write:
    Cm    = 0.00114071
    Cd    = 0.0545682
    Cl    = 0.00137288
    Cl(f) = 0.00182715
    Cl(r) = -0.000454268

Time = 30s

smoothSolver:  Solving for Ux, Initial residual = 0.00390482, Final residual = 0.000335736, No Iterations 10
smoothSolver:  Solving for Uy, Initial residual = 0.0410037, Final residual = 0.00325596, No Iterations 9
smoothSolver:  Solving for Uz, Initial residual = 0.0467386, Final residual = 0.00465517, No Iterations 9
GAMG:  Solving for p, Initial residual = 0.00996406, Final residual = 5.62492e-05, No Iterations 4
time step continuity errors : sum local = 8.77599e-06, global = -3.6834e-07, cumulative = 7.6715e-05
smoothSolver:  Solving for omega, Initial residual = 5.63216e-05, Final residual = 5.11552e-06, No Iterations 2
smoothSolver:  Solving for k, Initial residual = 0.00159074, Final residual = 4.97136e-05, No Iterations 3
ExecutionTime = 36.7308 s  ClockTime = 43 s

forceCoeffs forceCoeffs write:
    Cm    = 0.00113185
    Cd    = 0.0545853
    Cl    = 0.00136637
    Cl(f) = 0.00181503
    Cl(r) = -0.000448659

Time = 31s

smoothSolver:  Solving for Ux, Initial residual = 0.00361539, Final residual = 0.000311183, No Iterations 10
smoothSolver:  Solving for Uy, Initial residual = 0.0385604, Final residual = 0.00305991, No Iterations 9
smoothSolver:  Solving for Uz, Initial residual = 0.0450796, Final residual = 0.00450477, No Iterations 9
GAMG:  Solving for p, Initial residual = 0.00914366, Final residual = 5.05409e-05, No Iterations 4
time step continuity errors : sum local = 8.01492e-06, global = -3.07409e-07, cumulative = 7.64076e-05
smoothSolver:  Solving for omega, Initial residual = 5.44754e-05, Final residual = 4.95378e-06, No Iterations 2
smoothSolver:  Solving for k, Initial residual = 0.00154898, Final residual = 4.83363e-05, No Iterations 3
ExecutionTime = 37.7447 s  ClockTime = 44 s

forceCoeffs forceCoeffs write:
    Cm    = 0.00112837
    Cd    = 0.0546064
    Cl    = 0.00136338
    Cl(f) = 0.00181006
    Cl(r) = -0.000446683

Time = 32s

smoothSolver:  Solving for Ux, Initial residual = 0.0033512, Final residual = 0.000288842, No Iterations 10
smoothSolver:  Solving for Uy, Initial residual = 0.0361748, Final residual = 0.00286703, No Iterations 9
smoothSolver:  Solving for Uz, Initial residual = 0.0433515, Final residual = 0.00342403, No Iterations 10
GAMG:  Solving for p, Initial residual = 0.00840568, Final residual = 4.49879e-05, No Iterations 4
time step continuity errors : sum local = 7.23622e-06, global = -1.72525e-07, cumulative = 7.62351e-05
smoothSolver:  Solving for omega, Initial residual = 5.32536e-05, Final residual = 4.78622e-06, No Iterations 2
smoothSolver:  Solving for k, Initial residual = 0.0015098, Final residual = 4.7049e-05, No Iterations 3
ExecutionTime = 38.847 s  ClockTime = 45 s

forceCoeffs forceCoeffs write:
    Cm    = 0.00112512
    Cd    = 0.0546245
    Cl    = 0.00136289
    Cl(f) = 0.00180656
    Cl(r) = -0.000443672

Time = 33s

smoothSolver:  Solving for Ux, Initial residual = 0.0031078, Final residual = 0.000268438, No Iterations 10
smoothSolver:  Solving for Uy, Initial residual = 0.0338224, Final residual = 0.00267633, No Iterations 9
smoothSolver:  Solving for Uz, Initial residual = 0.0414071, Final residual = 0.00327049, No Iterations 10
GAMG:  Solving for p, Initial residual = 0.00775311, Final residual = 4.0882e-05, No Iterations 4
time step continuity errors : sum local = 6.65642e-06, global = -1.37281e-07, cumulative = 7.60978e-05
smoothSolver:  Solving for omega, Initial residual = 5.17418e-05, Final residual = 4.64695e-06, No Iterations 2
smoothSolver:  Solving for k, Initial residual = 0.00147288, Final residual = 4.58727e-05, No Iterations 3
ExecutionTime = 39.8975 s  ClockTime = 46 s

forceCoeffs forceCoeffs write:
    Cm    = 0.00112734
    Cd    = 0.0546434
    Cl    = 0.00136496
    Cl(f) = 0.00180982
    Cl(r) = -0.000444858

Time = 34s

smoothSolver:  Solving for Ux, Initial residual = 0.00288467, Final residual = 0.000249754, No Iterations 10
smoothSolver:  Solving for Uy, Initial residual = 0.031574, Final residual = 0.00249473, No Iterations 9
smoothSolver:  Solving for Uz, Initial residual = 0.0393083, Final residual = 0.00310292, No Iterations 10
GAMG:  Solving for p, Initial residual = 0.00715015, Final residual = 3.69481e-05, No Iterations 4
time step continuity errors : sum local = 6.081e-06, global = -9.52081e-08, cumulative = 7.60026e-05
smoothSolver:  Solving for omega, Initial residual = 5.06204e-05, Final residual = 4.50874e-06, No Iterations 2
smoothSolver:  Solving for k, Initial residual = 0.00143993, Final residual = 4.48518e-05, No Iterations 3
ExecutionTime = 40.9051 s  ClockTime = 47 s

forceCoeffs forceCoeffs write:
    Cm    = 0.00112835
    Cd    = 0.0546625
    Cl    = 0.00136772
    Cl(f) = 0.00181222
    Cl(r) = -0.000444492

Time = 35s

smoothSolver:  Solving for Ux, Initial residual = 0.00267953, Final residual = 0.000232491, No Iterations 10
smoothSolver:  Solving for Uy, Initial residual = 0.0293639, Final residual = 0.0023177, No Iterations 9
smoothSolver:  Solving for Uz, Initial residual = 0.0371108, Final residual = 0.00292751, No Iterations 10
GAMG:  Solving for p, Initial residual = 0.00659874, Final residual = 3.32884e-05, No Iterations 4
time step continuity errors : sum local = 5.53066e-06, global = -7.28263e-08, cumulative = 7.59297e-05
smoothSolver:  Solving for omega, Initial residual = 4.9329e-05, Final residual = 4.3886e-06, No Iterations 2
smoothSolver:  Solving for k, Initial residual = 0.0014064, Final residual = 4.38456e-05, No Iterations 3
ExecutionTime = 41.9346 s  ClockTime = 48 s

forceCoeffs forceCoeffs write:
    Cm    = 0.00113333
    Cd    = 0.0546748
    Cl    = 0.00137241
    Cl(f) = 0.00181953
    Cl(r) = -0.000447122

Time = 36s

smoothSolver:  Solving for Ux, Initial residual = 0.00249132, Final residual = 0.000216586, No Iterations 10
smoothSolver:  Solving for Uy, Initial residual = 0.0272833, Final residual = 0.00215296, No Iterations 9
smoothSolver:  Solving for Uz, Initial residual = 0.035, Final residual = 0.00349339, No Iterations 9
GAMG:  Solving for p, Initial residual = 0.00609876, Final residual = 3.04363e-05, No Iterations 4
time step continuity errors : sum local = 5.09888e-06, global = -9.60736e-08, cumulative = 7.58337e-05
smoothSolver:  Solving for omega, Initial residual = 4.81377e-05, Final residual = 4.2669e-06, No Iterations 2
smoothSolver:  Solving for k, Initial residual = 0.0013775, Final residual = 4.30389e-05, No Iterations 3
ExecutionTime = 43.0044 s  ClockTime = 50 s

forceCoeffs forceCoeffs write:
    Cm    = 0.00113777
    Cd    = 0.0546901
    Cl    = 0.00137786
    Cl(f) = 0.00182671
    Cl(r) = -0.000448844

Time = 37s

smoothSolver:  Solving for Ux, Initial residual = 0.00231823, Final residual = 0.000201785, No Iterations 10
smoothSolver:  Solving for Uy, Initial residual = 0.025344, Final residual = 0.00199796, No Iterations 9
smoothSolver:  Solving for Uz, Initial residual = 0.0330292, Final residual = 0.00329267, No Iterations 9
GAMG:  Solving for p, Initial residual = 0.00563108, Final residual = 2.71924e-05, No Iterations 4
time step continuity errors : sum local = 4.58894e-06, global = -5.49011e-08, cumulative = 7.57788e-05
smoothSolver:  Solving for omega, Initial residual = 4.66444e-05, Final residual = 4.14902e-06, No Iterations 2
smoothSolver:  Solving for k, Initial residual = 0.00134849, Final residual = 4.22273e-05, No Iterations 3
ExecutionTime = 44.0517 s  ClockTime = 51 s

forceCoeffs forceCoeffs write:
    Cm    = 0.00114311
    Cd    = 0.0547002
    Cl    = 0.00138308
    Cl(f) = 0.00183465
    Cl(r) = -0.000451573

Time = 38s

smoothSolver:  Solving for Ux, Initial residual = 0.00215889, Final residual = 0.000188058, No Iterations 10
smoothSolver:  Solving for Uy, Initial residual = 0.0235178, Final residual = 0.00185603, No Iterations 9
smoothSolver:  Solving for Uz, Initial residual = 0.0311185, Final residual = 0.00309687, No Iterations 9
GAMG:  Solving for p, Initial residual = 0.00520314, Final residual = 2.44834e-05, No Iterations 4
time step continuity errors : sum local = 4.15828e-06, global = -3.13757e-08, cumulative = 7.57474e-05
smoothSolver:  Solving for omega, Initial residual = 4.56674e-05, Final residual = 4.06008e-06, No Iterations 2
smoothSolver:  Solving for k, Initial residual = 0.00132238, Final residual = 4.1558e-05, No Iterations 3
ExecutionTime = 45.0681 s  ClockTime = 52 s

forceCoeffs forceCoeffs write:
    Cm    = 0.00114932
    Cd    = 0.0547143
    Cl    = 0.00138943
    Cl(f) = 0.00184403
    Cl(r) = -0.000454598

Time = 39s

smoothSolver:  Solving for Ux, Initial residual = 0.00201287, Final residual = 0.000175261, No Iterations 10
smoothSolver:  Solving for Uy, Initial residual = 0.0218081, Final residual = 0.00172606, No Iterations 9
smoothSolver:  Solving for Uz, Initial residual = 0.0292201, Final residual = 0.00290275, No Iterations 9
GAMG:  Solving for p, Initial residual = 0.00480911, Final residual = 2.2177e-05, No Iterations 4
time step continuity errors : sum local = 3.78756e-06, global = -2.62892e-08, cumulative = 7.57211e-05
smoothSolver:  Solving for omega, Initial residual = 4.45594e-05, Final residual = 3.95005e-06, No Iterations 2
smoothSolver:  Solving for k, Initial residual = 0.0012957, Final residual = 4.08675e-05, No Iterations 3
ExecutionTime = 46.0855 s  ClockTime = 53 s

forceCoeffs forceCoeffs write:
    Cm    = 0.00115651
    Cd    = 0.0547206
    Cl    = 0.00139535
    Cl(f) = 0.00185419
    Cl(r) = -0.000458839

Time = 40s

smoothSolver:  Solving for Ux, Initial residual = 0.00187931, Final residual = 0.000163321, No Iterations 10
smoothSolver:  Solving for Uy, Initial residual = 0.0202291, Final residual = 0.00160567, No Iterations 9
smoothSolver:  Solving for Uz, Initial residual = 0.0274242, Final residual = 0.00271755, No Iterations 9
GAMG:  Solving for p, Initial residual = 0.00445096, Final residual = 2.01931e-05, No Iterations 4
time step continuity errors : sum local = 3.46575e-06, global = -3.54647e-08, cumulative = 7.56856e-05
smoothSolver:  Solving for omega, Initial residual = 4.34695e-05, Final residual = 3.87751e-06, No Iterations 2
smoothSolver:  Solving for k, Initial residual = 0.00127207, Final residual = 4.02859e-05, No Iterations 3
ExecutionTime = 47.1138 s  ClockTime = 54 s

forceCoeffs forceCoeffs write:
    Cm    = 0.00116285
    Cd    = 0.0547313
    Cl    = 0.00140103
    Cl(f) = 0.00186337
    Cl(r) = -0.000462339

Time = 41s

smoothSolver:  Solving for Ux, Initial residual = 0.00175638, Final residual = 0.000152092, No Iterations 10
smoothSolver:  Solving for Uy, Initial residual = 0.0187838, Final residual = 0.0014947, No Iterations 9
smoothSolver:  Solving for Uz, Initial residual = 0.0256958, Final residual = 0.00254349, No Iterations 9
GAMG:  Solving for p, Initial residual = 0.00412085, Final residual = 1.84086e-05, No Iterations 4
time step continuity errors : sum local = 3.17306e-06, global = -4.39388e-08, cumulative = 7.56417e-05
smoothSolver:  Solving for omega, Initial residual = 4.28116e-05, Final residual = 3.79391e-06, No Iterations 2
smoothSolver:  Solving for k, Initial residual = 0.00124863, Final residual = 3.96835e-05, No Iterations 3
ExecutionTime = 48.1367 s  ClockTime = 55 s

forceCoeffs forceCoeffs write:
    Cm    = 0.00116745
    Cd    = 0.0547374
    Cl    = 0.00140684
    Cl(f) = 0.00187087
    Cl(r) = -0.000464025

Time = 42s

smoothSolver:  Solving for Ux, Initial residual = 0.00164152, Final residual = 0.000141516, No Iterations 10
smoothSolver:  Solving for Uy, Initial residual = 0.017471, Final residual = 0.00139329, No Iterations 9
smoothSolver:  Solving for Uz, Initial residual = 0.0240668, Final residual = 0.00237929, No Iterations 9
GAMG:  Solving for p, Initial residual = 0.00381911, Final residual = 1.69131e-05, No Iterations 4
time step continuity errors : sum local = 2.92643e-06, global = -5.13296e-08, cumulative = 7.55904e-05
smoothSolver:  Solving for omega, Initial residual = 4.18157e-05, Final residual = 3.70063e-06, No Iterations 2
smoothSolver:  Solving for k, Initial residual = 0.00122584, Final residual = 3.91135e-05, No Iterations 3
ExecutionTime = 49.1736 s  ClockTime = 56 s

forceCoeffs forceCoeffs write:
    Cm    = 0.00117408
    Cd    = 0.0547397
    Cl    = 0.00141261
    Cl(f) = 0.00188038
    Cl(r) = -0.000467777

Time = 43s

smoothSolver:  Solving for Ux, Initial residual = 0.00153459, Final residual = 0.00013151, No Iterations 10
smoothSolver:  Solving for Uy, Initial residual = 0.0162494, Final residual = 0.00129936, No Iterations 9
smoothSolver:  Solving for Uz, Initial residual = 0.0225173, Final residual = 0.00222372, No Iterations 9
GAMG:  Solving for p, Initial residual = 0.00354199, Final residual = 1.55661e-05, No Iterations 4
time step continuity errors : sum local = 2.70255e-06, global = -5.45685e-08, cumulative = 7.55358e-05
smoothSolver:  Solving for omega, Initial residual = 4.0814e-05, Final residual = 3.62944e-06, No Iterations 2
smoothSolver:  Solving for k, Initial residual = 0.0012064, Final residual = 3.86472e-05, No Iterations 3
ExecutionTime = 50.201 s  ClockTime = 57 s

forceCoeffs forceCoeffs write:
    Cm    = 0.00118121
    Cd    = 0.0547456
    Cl    = 0.00141769
    Cl(f) = 0.00189006
    Cl(r) = -0.000472371

Time = 44s

smoothSolver:  Solving for Ux, Initial residual = 0.0014338, Final residual = 0.000122045, No Iterations 10
smoothSolver:  Solving for Uy, Initial residual = 0.0151321, Final residual = 0.00121414, No Iterations 9
smoothSolver:  Solving for Uz, Initial residual = 0.0210712, Final residual = 0.00207527, No Iterations 9
GAMG:  Solving for p, Initial residual = 0.00329229, Final residual = 1.44046e-05, No Iterations 4
time step continuity errors : sum local = 2.50855e-06, global = -5.84212e-08, cumulative = 7.54774e-05
smoothSolver:  Solving for omega, Initial residual = 4.01461e-05, Final residual = 3.5663e-06, No Iterations 2
smoothSolver:  Solving for k, Initial residual = 0.00118631, Final residual = 3.81276e-05, No Iterations 3
ExecutionTime = 51.2483 s  ClockTime = 58 s

forceCoeffs forceCoeffs write:
    Cm    = 0.00118455
    Cd    = 0.0547511
    Cl    = 0.00142256
    Cl(f) = 0.00189583
    Cl(r) = -0.000473266

Time = 45s

smoothSolver:  Solving for Ux, Initial residual = 0.00133839, Final residual = 0.000113037, No Iterations 10
smoothSolver:  Solving for Uy, Initial residual = 0.0141117, Final residual = 0.00113433, No Iterations 9
smoothSolver:  Solving for Uz, Initial residual = 0.0196974, Final residual = 0.00193462, No Iterations 9
GAMG:  Solving for p, Initial residual = 0.00306507, Final residual = 1.33958e-05, No Iterations 4
time step continuity errors : sum local = 2.33931e-06, global = -5.59583e-08, cumulative = 7.54214e-05
smoothSolver:  Solving for omega, Initial residual = 3.93084e-05, Final residual = 3.4693e-06, No Iterations 2
smoothSolver:  Solving for k, Initial residual = 0.0011664, Final residual = 3.75718e-05, No Iterations 3
ExecutionTime = 52.4181 s  ClockTime = 59 s

forceCoeffs forceCoeffs write:
    Cm    = 0.00119189
    Cd    = 0.0547498
    Cl    = 0.00142781
    Cl(f) = 0.0019058
    Cl(r) = -0.000477989

Time = 46s

smoothSolver:  Solving for Ux, Initial residual = 0.00124777, Final residual = 0.000104479, No Iterations 10
smoothSolver:  Solving for Uy, Initial residual = 0.0131786, Final residual = 0.00106106, No Iterations 9
smoothSolver:  Solving for Uz, Initial residual = 0.0183902, Final residual = 0.00180218, No Iterations 9
GAMG:  Solving for p, Initial residual = 0.00285772, Final residual = 1.24567e-05, No Iterations 4
time step continuity errors : sum local = 2.18082e-06, global = -5.74245e-08, cumulative = 7.5364e-05
smoothSolver:  Solving for omega, Initial residual = 3.86861e-05, Final residual = 3.40059e-06, No Iterations 2
smoothSolver:  Solving for k, Initial residual = 0.00115103, Final residual = 3.71792e-05, No Iterations 3
ExecutionTime = 53.4122 s  ClockTime = 60 s

forceCoeffs forceCoeffs write:
    Cm    = 0.00119644
    Cd    = 0.0547571
    Cl    = 0.00143222
    Cl(f) = 0.00191255
    Cl(r) = -0.00048033

Time = 47s

smoothSolver:  Solving for Ux, Initial residual = 0.0011618, Final residual = 9.63675e-05, No Iterations 10
smoothSolver:  Solving for Uy, Initial residual = 0.0123101, Final residual = 0.000994265, No Iterations 9
smoothSolver:  Solving for Uz, Initial residual = 0.0171762, Final residual = 0.00168184, No Iterations 9
GAMG:  Solving for p, Initial residual = 0.00266322, Final residual = 1.16141e-05, No Iterations 4
time step continuity errors : sum local = 2.03795e-06, global = -5.16174e-08, cumulative = 7.53124e-05
smoothSolver:  Solving for omega, Initial residual = 3.74699e-05, Final residual = 3.3372e-06, No Iterations 2
smoothSolver:  Solving for k, Initial residual = 0.00113217, Final residual = 3.65986e-05, No Iterations 3
ExecutionTime = 54.8634 s  ClockTime = 62 s

forceCoeffs forceCoeffs write:
    Cm    = 0.00120232
    Cd    = 0.0547551
    Cl    = 0.00143701
    Cl(f) = 0.00192083
    Cl(r) = -0.000483816

Time = 48s

smoothSolver:  Solving for Ux, Initial residual = 0.00108003, Final residual = 8.87229e-05, No Iterations 10
smoothSolver:  Solving for Uy, Initial residual = 0.0115119, Final residual = 0.00093187, No Iterations 9
smoothSolver:  Solving for Uz, Initial residual = 0.0160299, Final residual = 0.00157121, No Iterations 9
GAMG:  Solving for p, Initial residual = 0.00248318, Final residual = 1.08105e-05, No Iterations 4
time step continuity errors : sum local = 1.90103e-06, global = -5.25576e-08, cumulative = 7.52598e-05
smoothSolver:  Solving for omega, Initial residual = 3.71026e-05, Final residual = 3.25613e-06, No Iterations 2
smoothSolver:  Solving for k, Initial residual = 0.00111779, Final residual = 3.61631e-05, No Iterations 3
ExecutionTime = 55.9279 s  ClockTime = 63 s

forceCoeffs forceCoeffs write:
    Cm    = 0.00120774
    Cd    = 0.0547592
    Cl    = 0.00144234
    Cl(f) = 0.00192892
    Cl(r) = -0.000486575

Time = 49s

smoothSolver:  Solving for Ux, Initial residual = 0.00100246, Final residual = 8.15205e-05, No Iterations 10
smoothSolver:  Solving for Uy, Initial residual = 0.010774, Final residual = 0.000872948, No Iterations 9
smoothSolver:  Solving for Uz, Initial residual = 0.0149852, Final residual = 0.00147178, No Iterations 9
GAMG:  Solving for p, Initial residual = 0.00231382, Final residual = 1.0052e-05, No Iterations 4
time step continuity errors : sum local = 1.77118e-06, global = -5.01012e-08, cumulative = 7.52097e-05
smoothSolver:  Solving for omega, Initial residual = 3.60865e-05, Final residual = 3.18003e-06, No Iterations 2
smoothSolver:  Solving for k, Initial residual = 0.00110212, Final residual = 3.56369e-05, No Iterations 3
ExecutionTime = 57.0039 s  ClockTime = 64 s

forceCoeffs forceCoeffs write:
    Cm    = 0.00121306
    Cd    = 0.0547587
    Cl    = 0.00144693
    Cl(f) = 0.00193653
    Cl(r) = -0.000489598

Time = 50s

smoothSolver:  Solving for Ux, Initial residual = 0.000928854, Final residual = 7.4757e-05, No Iterations 10
smoothSolver:  Solving for Uy, Initial residual = 0.0100833, Final residual = 0.000817599, No Iterations 9
smoothSolver:  Solving for Uz, Initial residual = 0.0140093, Final residual = 0.00138211, No Iterations 9
GAMG:  Solving for p, Initial residual = 0.00216088, Final residual = 9.34399e-06, No Iterations 4
time step continuity errors : sum local = 1.6496e-06, global = -5.76201e-08, cumulative = 7.51521e-05
smoothSolver:  Solving for omega, Initial residual = 3.55848e-05, Final residual = 3.13718e-06, No Iterations 2
smoothSolver:  Solving for k, Initial residual = 0.0010888, Final residual = 3.51712e-05, No Iterations 3
ExecutionTime = 58.0312 s  ClockTime = 65 s

forceCoeffs forceCoeffs write:
    Cm    = 0.00121851
    Cd    = 0.0547646
    Cl    = 0.00145154
    Cl(f) = 0.00194428
    Cl(r) = -0.000492739

Time = 51s

smoothSolver:  Solving for Ux, Initial residual = 0.000859451, Final residual = 6.84873e-05, No Iterations 10
smoothSolver:  Solving for Uy, Initial residual = 0.0094566, Final residual = 0.00076553, No Iterations 9
smoothSolver:  Solving for Uz, Initial residual = 0.0131319, Final residual = 0.00130361, No Iterations 9
GAMG:  Solving for p, Initial residual = 0.00202204, Final residual = 8.72564e-06, No Iterations 4
time step continuity errors : sum local = 1.54325e-06, global = -5.59441e-08, cumulative = 7.50962e-05
smoothSolver:  Solving for omega, Initial residual = 3.53266e-05, Final residual = 3.05406e-06, No Iterations 2
smoothSolver:  Solving for k, Initial residual = 0.00107462, Final residual = 3.46224e-05, No Iterations 3
ExecutionTime = 59.1085 s  ClockTime = 66 s

forceCoeffs forceCoeffs write:
    Cm    = 0.00122295
    Cd    = 0.0547632
    Cl    = 0.00145634
    Cl(f) = 0.00195112
    Cl(r) = -0.00049478

Time = 52s

smoothSolver:  Solving for Ux, Initial residual = 0.000793931, Final residual = 6.27077e-05, No Iterations 10
smoothSolver:  Solving for Uy, Initial residual = 0.00888453, Final residual = 0.000715912, No Iterations 9
smoothSolver:  Solving for Uz, Initial residual = 0.0123444, Final residual = 0.00123094, No Iterations 9
GAMG:  Solving for p, Initial residual = 0.00189162, Final residual = 8.11344e-06, No Iterations 4
time step continuity errors : sum local = 1.43748e-06, global = -6.7131e-08, cumulative = 7.5029e-05
smoothSolver:  Solving for omega, Initial residual = 3.43289e-05, Final residual = 2.98166e-06, No Iterations 2
smoothSolver:  Solving for k, Initial residual = 0.00106168, Final residual = 3.41348e-05, No Iterations 3
ExecutionTime = 60.2606 s  ClockTime = 67 s

forceCoeffs forceCoeffs write:
    Cm    = 0.00122774
    Cd    = 0.0547663
    Cl    = 0.00146004
    Cl(f) = 0.00195775
    Cl(r) = -0.000497716

Time = 53s

smoothSolver:  Solving for Ux, Initial residual = 0.000733217, Final residual = 5.74231e-05, No Iterations 10
smoothSolver:  Solving for Uy, Initial residual = 0.00831539, Final residual = 0.000668858, No Iterations 9
smoothSolver:  Solving for Uz, Initial residual = 0.0116487, Final residual = 0.00116182, No Iterations 9
GAMG:  Solving for p, Initial residual = 0.00177025, Final residual = 7.49991e-06, No Iterations 4
time step continuity errors : sum local = 1.33098e-06, global = -6.03517e-08, cumulative = 7.49687e-05
smoothSolver:  Solving for omega, Initial residual = 3.3895e-05, Final residual = 2.92481e-06, No Iterations 2
smoothSolver:  Solving for k, Initial residual = 0.0010498, Final residual = 3.36401e-05, No Iterations 3
ExecutionTime = 61.4158 s  ClockTime = 68 s

forceCoeffs forceCoeffs write:
    Cm    = 0.0012337
    Cd    = 0.0547656
    Cl    = 0.00146549
    Cl(f) = 0.00196644
    Cl(r) = -0.000500957

Time = 54s

smoothSolver:  Solving for Ux, Initial residual = 0.000677114, Final residual = 6.73011e-05, No Iterations 9
smoothSolver:  Solving for Uy, Initial residual = 0.00780041, Final residual = 0.000624589, No Iterations 9
smoothSolver:  Solving for Uz, Initial residual = 0.010998, Final residual = 0.00109517, No Iterations 9
GAMG:  Solving for p, Initial residual = 0.0016629, Final residual = 6.69821e-06, No Iterations 4
time step continuity errors : sum local = 1.1906e-06, global = -5.12961e-08, cumulative = 7.49174e-05
smoothSolver:  Solving for omega, Initial residual = 3.3538e-05, Final residual = 2.86002e-06, No Iterations 2
smoothSolver:  Solving for k, Initial residual = 0.00103794, Final residual = 3.31465e-05, No Iterations 3
ExecutionTime = 62.4616 s  ClockTime = 69 s

forceCoeffs forceCoeffs write:
    Cm    = 0.00123796
    Cd    = 0.0547658
    Cl    = 0.00146936
    Cl(f) = 0.00197264
    Cl(r) = -0.000503275

Time = 55s

smoothSolver:  Solving for Ux, Initial residual = 0.000626105, Final residual = 6.18593e-05, No Iterations 9
smoothSolver:  Solving for Uy, Initial residual = 0.00729751, Final residual = 0.000580643, No Iterations 9
smoothSolver:  Solving for Uz, Initial residual = 0.0103831, Final residual = 0.00103018, No Iterations 9
GAMG:  Solving for p, Initial residual = 0.00156017, Final residual = 6.36261e-06, No Iterations 4
time step continuity errors : sum local = 1.13254e-06, global = -4.7418e-08, cumulative = 7.487e-05
smoothSolver:  Solving for omega, Initial residual = 3.26939e-05, Final residual = 2.79633e-06, No Iterations 2
smoothSolver:  Solving for k, Initial residual = 0.00102728, Final residual = 3.26734e-05, No Iterations 3
ExecutionTime = 63.6624 s  ClockTime = 70 s

forceCoeffs forceCoeffs write:
    Cm    = 0.00124274
    Cd    = 0.0547643
    Cl    = 0.00147293
    Cl(f) = 0.0019792
    Cl(r) = -0.000506274

Time = 56s

smoothSolver:  Solving for Ux, Initial residual = 0.00058012, Final residual = 5.70371e-05, No Iterations 9
smoothSolver:  Solving for Uy, Initial residual = 0.00682326, Final residual = 0.000541829, No Iterations 9
smoothSolver:  Solving for Uz, Initial residual = 0.00979903, Final residual = 0.000968437, No Iterations 9
GAMG:  Solving for p, Initial residual = 0.00146819, Final residual = 5.99461e-06, No Iterations 4
time step continuity errors : sum local = 1.06851e-06, global = -6.25039e-08, cumulative = 7.48075e-05
smoothSolver:  Solving for omega, Initial residual = 3.23982e-05, Final residual = 2.73323e-06, No Iterations 2
smoothSolver:  Solving for k, Initial residual = 0.00101676, Final residual = 3.21964e-05, No Iterations 3
ExecutionTime = 64.6804 s  ClockTime = 72 s

forceCoeffs forceCoeffs write:
    Cm    = 0.00124672
    Cd    = 0.0547679
    Cl    = 0.00147707
    Cl(f) = 0.00198526
    Cl(r) = -0.000508188

Time = 57s

smoothSolver:  Solving for Ux, Initial residual = 0.000537887, Final residual = 5.26845e-05, No Iterations 9
smoothSolver:  Solving for Uy, Initial residual = 0.00639908, Final residual = 0.000505654, No Iterations 9
smoothSolver:  Solving for Uz, Initial residual = 0.00925254, Final residual = 0.00091066, No Iterations 9
GAMG:  Solving for p, Initial residual = 0.0013814, Final residual = 5.58714e-06, No Iterations 4
time step continuity errors : sum local = 9.97193e-07, global = -3.82278e-08, cumulative = 7.47692e-05
smoothSolver:  Solving for omega, Initial residual = 3.156e-05, Final residual = 2.66132e-06, No Iterations 2
smoothSolver:  Solving for k, Initial residual = 0.0010049, Final residual = 3.16705e-05, No Iterations 3
ExecutionTime = 65.707 s  ClockTime = 73 s

forceCoeffs forceCoeffs write:
    Cm    = 0.00125061
    Cd    = 0.054762
    Cl    = 0.00148043
    Cl(f) = 0.00199083
    Cl(r) = -0.000510395

Time = 58s

smoothSolver:  Solving for Ux, Initial residual = 0.000499317, Final residual = 4.87512e-05, No Iterations 9
smoothSolver:  Solving for Uy, Initial residual = 0.00599745, Final residual = 0.000471862, No Iterations 9
smoothSolver:  Solving for Uz, Initial residual = 0.00872738, Final residual = 0.000855071, No Iterations 9
GAMG:  Solving for p, Initial residual = 0.00130146, Final residual = 5.19595e-06, No Iterations 4
time step continuity errors : sum local = 9.28533e-07, global = -4.94063e-08, cumulative = 7.47198e-05
smoothSolver:  Solving for omega, Initial residual = 3.12026e-05, Final residual = 2.62263e-06, No Iterations 2
smoothSolver:  Solving for k, Initial residual = 0.00099659, Final residual = 3.12638e-05, No Iterations 3
ExecutionTime = 66.988 s  ClockTime = 74 s

forceCoeffs forceCoeffs write:
    Cm    = 0.00125511
    Cd    = 0.054768
    Cl    = 0.00148356
    Cl(f) = 0.00199689
    Cl(r) = -0.000513332

Time = 59s

smoothSolver:  Solving for Ux, Initial residual = 0.000464359, Final residual = 4.52236e-05, No Iterations 9
smoothSolver:  Solving for Uy, Initial residual = 0.00560868, Final residual = 0.000440219, No Iterations 9
smoothSolver:  Solving for Uz, Initial residual = 0.0082396, Final residual = 0.000801885, No Iterations 9
GAMG:  Solving for p, Initial residual = 0.00122574, Final residual = 1.21129e-05, No Iterations 3
time step continuity errors : sum local = 2.16707e-06, global = 5.42659e-07, cumulative = 7.52625e-05
smoothSolver:  Solving for omega, Initial residual = 3.07437e-05, Final residual = 2.54917e-06, No Iterations 2
smoothSolver:  Solving for k, Initial residual = 0.000985019, Final residual = 3.07233e-05, No Iterations 3
ExecutionTime = 68.0077 s  ClockTime = 75 s

forceCoeffs forceCoeffs write:
    Cm    = 0.00125848
    Cd    = 0.0547651
    Cl    = 0.00148721
    Cl(f) = 0.00200208
    Cl(r) = -0.000514874

Time = 60s

smoothSolver:  Solving for Ux, Initial residual = 0.000431881, Final residual = 4.20101e-05, No Iterations 9
smoothSolver:  Solving for Uy, Initial residual = 0.00520065, Final residual = 0.000406202, No Iterations 9
smoothSolver:  Solving for Uz, Initial residual = 0.00775248, Final residual = 0.00075064, No Iterations 9
GAMG:  Solving for p, Initial residual = 0.00115873, Final residual = 5.4565e-06, No Iterations 4
time step continuity errors : sum local = 9.77148e-07, global = 1.80317e-07, cumulative = 7.54428e-05
smoothSolver:  Solving for omega, Initial residual = 3.02365e-05, Final residual = 2.49439e-06, No Iterations 2
smoothSolver:  Solving for k, Initial residual = 0.000975101, Final residual = 3.02845e-05, No Iterations 3
ExecutionTime = 69.0348 s  ClockTime = 76 s

forceCoeffs forceCoeffs write:
    Cm    = 0.00126325
    Cd    = 0.0547635
    Cl    = 0.00149052
    Cl(f) = 0.00200851
    Cl(r) = -0.000517985

Time = 61s

smoothSolver:  Solving for Ux, Initial residual = 0.000404279, Final residual = 3.92611e-05, No Iterations 9
smoothSolver:  Solving for Uy, Initial residual = 0.00495136, Final residual = 0.000493493, No Iterations 8
smoothSolver:  Solving for Uz, Initial residual = 0.00732305, Final residual = 0.000703042, No Iterations 9
GAMG:  Solving for p, Initial residual = 0.00109306, Final residual = 1.07065e-05, No Iterations 3
time step continuity errors : sum local = 1.91941e-06, global = 4.99209e-07, cumulative = 7.5942e-05
smoothSolver:  Solving for omega, Initial residual = 2.99661e-05, Final residual = 2.45216e-06, No Iterations 2
smoothSolver:  Solving for k, Initial residual = 0.000966112, Final residual = 2.982e-05, No Iterations 3
ExecutionTime = 70.0637 s  ClockTime = 77 s

forceCoeffs forceCoeffs write:
    Cm    = 0.00126593
    Cd    = 0.0547647
    Cl    = 0.00149351
    Cl(f) = 0.00201269
    Cl(r) = -0.000519174

Time = 62s

smoothSolver:  Solving for Ux, Initial residual = 0.000376915, Final residual = 3.66788e-05, No Iterations 9
smoothSolver:  Solving for Uy, Initial residual = 0.00460049, Final residual = 0.000457905, No Iterations 8
smoothSolver:  Solving for Uz, Initial residual = 0.00686405, Final residual = 0.000656292, No Iterations 9
GAMG:  Solving for p, Initial residual = 0.00103635, Final residual = 4.68014e-06, No Iterations 4
time step continuity errors : sum local = 8.39778e-07, global = 8.88721e-08, cumulative = 7.60309e-05
smoothSolver:  Solving for omega, Initial residual = 2.96483e-05, Final residual = 2.39665e-06, No Iterations 2
smoothSolver:  Solving for k, Initial residual = 0.00095561, Final residual = 2.93475e-05, No Iterations 3
ExecutionTime = 71.1972 s  ClockTime = 78 s

forceCoeffs forceCoeffs write:
    Cm    = 0.00126885
    Cd    = 0.0547627
    Cl    = 0.00149657
    Cl(f) = 0.00201713
    Cl(r) = -0.000520567

Time = 63s

smoothSolver:  Solving for Ux, Initial residual = 0.000354155, Final residual = 3.44782e-05, No Iterations 9
smoothSolver:  Solving for Uy, Initial residual = 0.00438192, Final residual = 0.000432826, No Iterations 8
smoothSolver:  Solving for Uz, Initial residual = 0.0064663, Final residual = 0.000614092, No Iterations 9
GAMG:  Solving for p, Initial residual = 0.000981592, Final residual = 9.00347e-06, No Iterations 3
time step continuity errors : sum local = 1.61706e-06, global = 4.9958e-07, cumulative = 7.65305e-05
smoothSolver:  Solving for omega, Initial residual = 2.8899e-05, Final residual = 2.3311e-06, No Iterations 2
smoothSolver:  Solving for k, Initial residual = 0.000946273, Final residual = 2.8924e-05, No Iterations 3
ExecutionTime = 72.3207 s  ClockTime = 79 s

forceCoeffs forceCoeffs write:
    Cm    = 0.00127424
    Cd    = 0.054762
    Cl    = 0.00150018
    Cl(f) = 0.00202433
    Cl(r) = -0.000524146

Time = 64s

smoothSolver:  Solving for Ux, Initial residual = 0.000331638, Final residual = 3.23744e-05, No Iterations 9
smoothSolver:  Solving for Uy, Initial residual = 0.00404703, Final residual = 0.000399745, No Iterations 8
smoothSolver:  Solving for Uz, Initial residual = 0.00605057, Final residual = 0.000573322, No Iterations 9
GAMG:  Solving for p, Initial residual = 0.000933751, Final residual = 3.97105e-06, No Iterations 4
time step continuity errors : sum local = 7.13727e-07, global = -8.13241e-10, cumulative = 7.65296e-05
smoothSolver:  Solving for omega, Initial residual = 2.87609e-05, Final residual = 2.29945e-06, No Iterations 2
smoothSolver:  Solving for k, Initial residual = 0.000936556, Final residual = 2.84663e-05, No Iterations 3
ExecutionTime = 73.4314 s  ClockTime = 80 s

forceCoeffs forceCoeffs write:
    Cm    = 0.00127753
    Cd    = 0.0547612
    Cl    = 0.00150352
    Cl(f) = 0.00202929
    Cl(r) = -0.000525773

Time = 65s

smoothSolver:  Solving for Ux, Initial residual = 0.000312844, Final residual = 3.05762e-05, No Iterations 9
smoothSolver:  Solving for Uy, Initial residual = 0.00383311, Final residual = 0.000375296, No Iterations 8
smoothSolver:  Solving for Uz, Initial residual = 0.00568939, Final residual = 0.000535845, No Iterations 9
GAMG:  Solving for p, Initial residual = 0.000882217, Final residual = 7.71405e-06, No Iterations 3
time step continuity errors : sum local = 1.38758e-06, global = 4.78652e-07, cumulative = 7.70083e-05
smoothSolver:  Solving for omega, Initial residual = 2.82373e-05, Final residual = 2.25274e-06, No Iterations 2
smoothSolver:  Solving for k, Initial residual = 0.000926803, Final residual = 2.80378e-05, No Iterations 3
ExecutionTime = 74.4687 s  ClockTime = 82 s

forceCoeffs forceCoeffs write:
    Cm    = 0.0012811
    Cd    = 0.0547601
    Cl    = 0.00150706
    Cl(f) = 0.00203463
    Cl(r) = -0.000527566

Time = 66s

smoothSolver:  Solving for Ux, Initial residual = 0.000294664, Final residual = 2.88636e-05, No Iterations 9
smoothSolver:  Solving for Uy, Initial residual = 0.00352497, Final residual = 0.000345649, No Iterations 8
smoothSolver:  Solving for Uz, Initial residual = 0.00530758, Final residual = 0.000498521, No Iterations 9
GAMG:  Solving for p, Initial residual = 0.000838501, Final residual = 3.62367e-06, No Iterations 4
time step continuity errors : sum local = 6.52178e-07, global = -6.54357e-09, cumulative = 7.70018e-05
smoothSolver:  Solving for omega, Initial residual = 2.78883e-05, Final residual = 2.17996e-06, No Iterations 2
smoothSolver:  Solving for k, Initial residual = 0.000917199, Final residual = 2.76095e-05, No Iterations 3
ExecutionTime = 75.4758 s  ClockTime = 82 s

forceCoeffs forceCoeffs write:
    Cm    = 0.0012858
    Cd    = 0.054761
    Cl    = 0.00151113
    Cl(f) = 0.00204137
    Cl(r) = -0.000530239

Time = 67s

smoothSolver:  Solving for Ux, Initial residual = 0.000279055, Final residual = 2.74166e-05, No Iterations 9
smoothSolver:  Solving for Uy, Initial residual = 0.00334105, Final residual = 0.000324512, No Iterations 8
smoothSolver:  Solving for Uz, Initial residual = 0.00497805, Final residual = 0.000464568, No Iterations 9
GAMG:  Solving for p, Initial residual = 0.000794924, Final residual = 6.83573e-06, No Iterations 3
time step continuity errors : sum local = 1.23112e-06, global = 4.67635e-07, cumulative = 7.74694e-05
smoothSolver:  Solving for omega, Initial residual = 2.732e-05, Final residual = 2.14909e-06, No Iterations 2
smoothSolver:  Solving for k, Initial residual = 0.000906209, Final residual = 2.71576e-05, No Iterations 3
ExecutionTime = 76.5361 s  ClockTime = 84 s

forceCoeffs forceCoeffs write:
    Cm    = 0.0012907
    Cd    = 0.0547535
    Cl    = 0.00151477
    Cl(f) = 0.00204808
    Cl(r) = -0.000533309

Time = 68s

smoothSolver:  Solving for Ux, Initial residual = 0.000264093, Final residual = 2.6018e-05, No Iterations 9
smoothSolver:  Solving for Uy, Initial residual = 0.00309782, Final residual = 0.000300732, No Iterations 8
smoothSolver:  Solving for Uz, Initial residual = 0.00463742, Final residual = 0.000431976, No Iterations 9
GAMG:  Solving for p, Initial residual = 0.000757285, Final residual = 7.45693e-06, No Iterations 3
time step continuity errors : sum local = 1.3436e-06, global = 4.47506e-07, cumulative = 7.79169e-05
smoothSolver:  Solving for omega, Initial residual = 2.72095e-05, Final residual = 2.1206e-06, No Iterations 2
smoothSolver:  Solving for k, Initial residual = 0.000898014, Final residual = 2.6799e-05, No Iterations 3
ExecutionTime = 77.5814 s  ClockTime = 85 s

forceCoeffs forceCoeffs write:
    Cm    = 0.00129428
    Cd    = 0.0547599
    Cl    = 0.00151863
    Cl(f) = 0.0020536
    Cl(r) = -0.000534968

Time = 69s

smoothSolver:  Solving for Ux, Initial residual = 0.000250882, Final residual = 2.47974e-05, No Iterations 9
smoothSolver:  Solving for Uy, Initial residual = 0.00291024, Final residual = 0.00028085, No Iterations 8
smoothSolver:  Solving for Uz, Initial residual = 0.00433897, Final residual = 0.000403219, No Iterations 9
GAMG:  Solving for p, Initial residual = 0.000718416, Final residual = 3.414e-06, No Iterations 4
time step continuity errors : sum local = 6.1544e-07, global = 3.33521e-08, cumulative = 7.79502e-05
smoothSolver:  Solving for omega, Initial residual = 2.68142e-05, Final residual = 2.05088e-06, No Iterations 2
smoothSolver:  Solving for k, Initial residual = 0.000886444, Final residual = 2.6332e-05, No Iterations 3
ExecutionTime = 78.6781 s  ClockTime = 86 s

forceCoeffs forceCoeffs write:
    Cm    = 0.00129961
    Cd    = 0.0547524
    Cl    = 0.0015234
    Cl(f) = 0.00206131
    Cl(r) = -0.000537908

Time = 70s

smoothSolver:  Solving for Ux, Initial residual = 0.000239091, Final residual = 2.36873e-05, No Iterations 9
smoothSolver:  Solving for Uy, Initial residual = 0.00276001, Final residual = 0.000267058, No Iterations 8
smoothSolver:  Solving for Uz, Initial residual = 0.00406636, Final residual = 0.000377943, No Iterations 9
GAMG:  Solving for p, Initial residual = 0.000681628, Final residual = 5.56306e-06, No Iterations 3
time step continuity errors : sum local = 1.00342e-06, global = 4.17951e-07, cumulative = 7.83682e-05
smoothSolver:  Solving for omega, Initial residual = 2.61298e-05, Final residual = 2.01678e-06, No Iterations 2
smoothSolver:  Solving for k, Initial residual = 0.00087728, Final residual = 2.59829e-05, No Iterations 3
ExecutionTime = 79.6318 s  ClockTime = 87 s

forceCoeffs forceCoeffs write:
    Cm    = 0.00130428
    Cd    = 0.0547534
    Cl    = 0.00152776
    Cl(f) = 0.00206817
    Cl(r) = -0.000540401

Time = 71s

smoothSolver:  Solving for Ux, Initial residual = 0.000227675, Final residual = 2.26196e-05, No Iterations 9
smoothSolver:  Solving for Uy, Initial residual = 0.0025462, Final residual = 0.000248962, No Iterations 8
smoothSolver:  Solving for Uz, Initial residual = 0.00380277, Final residual = 0.000354305, No Iterations 9
GAMG:  Solving for p, Initial residual = 0.000647804, Final residual = 5.90048e-06, No Iterations 3
time step continuity errors : sum local = 1.06462e-06, global = 3.89699e-07, cumulative = 7.87579e-05
smoothSolver:  Solving for omega, Initial residual = 2.60899e-05, Final residual = 1.98726e-06, No Iterations 2
smoothSolver:  Solving for k, Initial residual = 0.000867876, Final residual = 2.55937e-05, No Iterations 3
ExecutionTime = 80.7087 s  ClockTime = 88 s

forceCoeffs forceCoeffs write:
    Cm    = 0.00131025
    Cd    = 0.0547536
    Cl    = 0.00153278
    Cl(f) = 0.00207664
    Cl(r) = -0.00054386

Time = 72s

smoothSolver:  Solving for Ux, Initial residual = 0.000217486, Final residual = 2.16224e-05, No Iterations 9
smoothSolver:  Solving for Uy, Initial residual = 0.00239364, Final residual = 0.000233912, No Iterations 8
smoothSolver:  Solving for Uz, Initial residual = 0.0035676, Final residual = 0.000334084, No Iterations 9
GAMG:  Solving for p, Initial residual = 0.000617313, Final residual = 5.7307e-06, No Iterations 3
time step continuity errors : sum local = 1.03439e-06, global = 3.86056e-07, cumulative = 7.91439e-05
smoothSolver:  Solving for omega, Initial residual = 2.56114e-05, Final residual = 1.93808e-06, No Iterations 2
smoothSolver:  Solving for k, Initial residual = 0.00085613, Final residual = 2.51906e-05, No Iterations 3
ExecutionTime = 81.7359 s  ClockTime = 89 s

forceCoeffs forceCoeffs write:
    Cm    = 0.00131376
    Cd    = 0.0547478
    Cl    = 0.0015376
    Cl(f) = 0.00208256
    Cl(r) = -0.000544955

Time = 73s

smoothSolver:  Solving for Ux, Initial residual = 0.000207911, Final residual = 2.07099e-05, No Iterations 9
smoothSolver:  Solving for Uy, Initial residual = 0.00226792, Final residual = 0.000222187, No Iterations 8
smoothSolver:  Solving for Uz, Initial residual = 0.00336487, Final residual = 0.000316106, No Iterations 9
GAMG:  Solving for p, Initial residual = 0.000589597, Final residual = 5.46531e-06, No Iterations 3
time step continuity errors : sum local = 9.86837e-07, global = 3.50742e-07, cumulative = 7.94947e-05
smoothSolver:  Solving for omega, Initial residual = 2.49202e-05, Final residual = 1.89821e-06, No Iterations 2
smoothSolver:  Solving for k, Initial residual = 0.000847188, Final residual = 2.48774e-05, No Iterations 3
ExecutionTime = 82.764 s  ClockTime = 90 s

forceCoeffs forceCoeffs write:
    Cm    = 0.00132125
    Cd    = 0.0547486
    Cl    = 0.00154276
    Cl(f) = 0.00209263
    Cl(r) = -0.000549868

Time = 74s

smoothSolver:  Solving for Ux, Initial residual = 0.000199113, Final residual = 1.98337e-05, No Iterations 9
smoothSolver:  Solving for Uy, Initial residual = 0.00214974, Final residual = 0.000211482, No Iterations 8
smoothSolver:  Solving for Uz, Initial residual = 0.0031811, Final residual = 0.000299514, No Iterations 9
GAMG:  Solving for p, Initial residual = 0.000564987, Final residual = 5.2086e-06, No Iterations 3
time step continuity errors : sum local = 9.408e-07, global = 3.44168e-07, cumulative = 7.98389e-05
smoothSolver:  Solving for omega, Initial residual = 2.53213e-05, Final residual = 1.86979e-06, No Iterations 2
smoothSolver:  Solving for k, Initial residual = 0.000837003, Final residual = 2.45177e-05, No Iterations 3
ExecutionTime = 83.8444 s  ClockTime = 91 s

forceCoeffs forceCoeffs write:
    Cm    = 0.00132601
    Cd    = 0.0547473
    Cl    = 0.001548
    Cl(f) = 0.00210001
    Cl(r) = -0.000552004

Time = 75s

smoothSolver:  Solving for Ux, Initial residual = 0.000190753, Final residual = 1.90177e-05, No Iterations 9
smoothSolver:  Solving for Uy, Initial residual = 0.00205744, Final residual = 0.000202611, No Iterations 8
smoothSolver:  Solving for Uz, Initial residual = 0.00302511, Final residual = 0.000282244, No Iterations 9
GAMG:  Solving for p, Initial residual = 0.000541431, Final residual = 4.9483e-06, No Iterations 3
time step continuity errors : sum local = 8.94058e-07, global = 3.13842e-07, cumulative = 8.01527e-05
smoothSolver:  Solving for omega, Initial residual = 2.49471e-05, Final residual = 1.83649e-06, No Iterations 2
smoothSolver:  Solving for k, Initial residual = 0.000826154, Final residual = 2.41965e-05, No Iterations 3
ExecutionTime = 84.9644 s  ClockTime = 92 s

forceCoeffs forceCoeffs write:
    Cm    = 0.00133317
    Cd    = 0.0547397
    Cl    = 0.00155369
    Cl(f) = 0.00211001
    Cl(r) = -0.000556325

Time = 76s

smoothSolver:  Solving for Ux, Initial residual = 0.000182838, Final residual = 1.82357e-05, No Iterations 9
smoothSolver:  Solving for Uy, Initial residual = 0.00197204, Final residual = 0.000194935, No Iterations 8
smoothSolver:  Solving for Uz, Initial residual = 0.00287677, Final residual = 0.000264221, No Iterations 9
GAMG:  Solving for p, Initial residual = 0.00052256, Final residual = 4.72338e-06, No Iterations 3
time step continuity errors : sum local = 8.53664e-07, global = 3.00199e-07, cumulative = 8.04529e-05
smoothSolver:  Solving for omega, Initial residual = 2.41879e-05, Final residual = 1.79883e-06, No Iterations 2
smoothSolver:  Solving for k, Initial residual = 0.000817043, Final residual = 2.39171e-05, No Iterations 3
ExecutionTime = 85.9864 s  ClockTime = 93 s

forceCoeffs forceCoeffs write:
    Cm    = 0.00133798
    Cd    = 0.0547421
    Cl    = 0.0015589
    Cl(f) = 0.00211743
    Cl(r) = -0.000558531

Time = 77s

smoothSolver:  Solving for Ux, Initial residual = 0.000175438, Final residual = 1.75138e-05, No Iterations 9
smoothSolver:  Solving for Uy, Initial residual = 0.001888, Final residual = 0.000187749, No Iterations 8
smoothSolver:  Solving for Uz, Initial residual = 0.00273485, Final residual = 0.000245998, No Iterations 9
GAMG:  Solving for p, Initial residual = 0.000501844, Final residual = 4.48577e-06, No Iterations 3
time step continuity errors : sum local = 8.10928e-07, global = 2.65248e-07, cumulative = 8.07181e-05
smoothSolver:  Solving for omega, Initial residual = 2.3873e-05, Final residual = 1.76612e-06, No Iterations 2
smoothSolver:  Solving for k, Initial residual = 0.000806327, Final residual = 2.35798e-05, No Iterations 3
ExecutionTime = 86.9881 s  ClockTime = 94 s

forceCoeffs forceCoeffs write:
    Cm    = 0.00134497
    Cd    = 0.0547375
    Cl    = 0.00156556
    Cl(f) = 0.00212775
    Cl(r) = -0.000562191

Time = 78s

smoothSolver:  Solving for Ux, Initial residual = 0.000168264, Final residual = 1.31862e-05, No Iterations 10
smoothSolver:  Solving for Uy, Initial residual = 0.00180719, Final residual = 0.000180589, No Iterations 8
smoothSolver:  Solving for Uz, Initial residual = 0.00258504, Final residual = 0.000227959, No Iterations 9
GAMG:  Solving for p, Initial residual = 0.000483203, Final residual = 4.25002e-06, No Iterations 3
time step continuity errors : sum local = 7.6851e-07, global = 2.56323e-07, cumulative = 8.09745e-05
smoothSolver:  Solving for omega, Initial residual = 2.36815e-05, Final residual = 1.73554e-06, No Iterations 2
smoothSolver:  Solving for k, Initial residual = 0.00079683, Final residual = 2.33321e-05, No Iterations 3
ExecutionTime = 87.9804 s  ClockTime = 95 s

forceCoeffs forceCoeffs write:
    Cm    = 0.00135191
    Cd    = 0.0547345
    Cl    = 0.00157189
    Cl(f) = 0.00213785
    Cl(r) = -0.000565964

Time = 79s

smoothSolver:  Solving for Ux, Initial residual = 0.000161195, Final residual = 1.26818e-05, No Iterations 10
smoothSolver:  Solving for Uy, Initial residual = 0.00173364, Final residual = 0.000135413, No Iterations 9
smoothSolver:  Solving for Uz, Initial residual = 0.00243587, Final residual = 0.000210707, No Iterations 9
GAMG:  Solving for p, Initial residual = 0.000465245, Final residual = 4.01917e-06, No Iterations 3
time step continuity errors : sum local = 7.2693e-07, global = 2.19202e-07, cumulative = 8.11937e-05
smoothSolver:  Solving for omega, Initial residual = 2.30454e-05, Final residual = 1.70802e-06, No Iterations 2
smoothSolver:  Solving for k, Initial residual = 0.000787027, Final residual = 2.30675e-05, No Iterations 3
ExecutionTime = 89.0531 s  ClockTime = 96 s

forceCoeffs forceCoeffs write:
    Cm    = 0.0013591
    Cd    = 0.0547312
    Cl    = 0.00157827
    Cl(f) = 0.00214824
    Cl(r) = -0.000569968

Time = 80s

smoothSolver:  Solving for Ux, Initial residual = 0.000154729, Final residual = 1.2199e-05, No Iterations 10
smoothSolver:  Solving for Uy, Initial residual = 0.00164888, Final residual = 0.000130793, No Iterations 9
smoothSolver:  Solving for Uz, Initial residual = 0.00228876, Final residual = 0.000195279, No Iterations 9
GAMG:  Solving for p, Initial residual = 0.000449252, Final residual = 3.80038e-06, No Iterations 3
time step continuity errors : sum local = 6.87521e-07, global = 2.03696e-07, cumulative = 8.13974e-05
smoothSolver:  Solving for omega, Initial residual = 2.31622e-05, Final residual = 1.68616e-06, No Iterations 2
smoothSolver:  Solving for k, Initial residual = 0.000778105, Final residual = 2.28343e-05, No Iterations 3
ExecutionTime = 90.068 s  ClockTime = 97 s

forceCoeffs forceCoeffs write:
    Cm    = 0.00136577
    Cd    = 0.0547335
    Cl    = 0.00158453
    Cl(f) = 0.00215803
    Cl(r) = -0.000573506

Time = 81s

smoothSolver:  Solving for Ux, Initial residual = 0.000148686, Final residual = 1.1768e-05, No Iterations 10
smoothSolver:  Solving for Uy, Initial residual = 0.00159424, Final residual = 0.000126756, No Iterations 9
smoothSolver:  Solving for Uz, Initial residual = 0.00214895, Final residual = 0.000180646, No Iterations 9
GAMG:  Solving for p, Initial residual = 0.000435271, Final residual = 3.63691e-06, No Iterations 3
time step continuity errors : sum local = 6.58077e-07, global = 1.84458e-07, cumulative = 8.15818e-05
smoothSolver:  Solving for omega, Initial residual = 2.29826e-05, Final residual = 1.6553e-06, No Iterations 2
smoothSolver:  Solving for k, Initial residual = 0.000767717, Final residual = 2.2567e-05, No Iterations 3
ExecutionTime = 91.1033 s  ClockTime = 99 s

forceCoeffs forceCoeffs write:
    Cm    = 0.00137315
    Cd    = 0.0547251
    Cl    = 0.00159157
    Cl(f) = 0.00216894
    Cl(r) = -0.000577366

Time = 82s

smoothSolver:  Solving for Ux, Initial residual = 0.00014321, Final residual = 1.13585e-05, No Iterations 10
smoothSolver:  Solving for Uy, Initial residual = 0.00154095, Final residual = 0.000123189, No Iterations 9
smoothSolver:  Solving for Uz, Initial residual = 0.00200921, Final residual = 0.00016746, No Iterations 9
GAMG:  Solving for p, Initial residual = 0.000423663, Final residual = 3.52265e-06, No Iterations 3
time step continuity errors : sum local = 6.37534e-07, global = 1.75117e-07, cumulative = 8.17569e-05
smoothSolver:  Solving for omega, Initial residual = 2.25317e-05, Final residual = 1.63251e-06, No Iterations 2
smoothSolver:  Solving for k, Initial residual = 0.000759323, Final residual = 2.23873e-05, No Iterations 3
ExecutionTime = 92.2007 s  ClockTime = 100 s

forceCoeffs forceCoeffs write:
    Cm    = 0.00137982
    Cd    = 0.0547263
    Cl    = 0.00159749
    Cl(f) = 0.00217856
    Cl(r) = -0.00058107

Time = 83s

smoothSolver:  Solving for Ux, Initial residual = 0.00013829, Final residual = 1.09817e-05, No Iterations 10
smoothSolver:  Solving for Uy, Initial residual = 0.00148917, Final residual = 0.000119662, No Iterations 9
[...]
smoothSolver:  Solving for Uz, Initial residual = 0.000114837, Final residual = 1.10386e-05, No Iterations 6
GAMG:  Solving for p, Initial residual = 4.69916e-05, Final residual = 2.0695e-07, No Iterations 4
time step continuity errors : sum local = 3.76979e-08, global = 5.40756e-11, cumulative = 8.32455e-05
smoothSolver:  Solving for omega, Initial residual = 8.87775e-06, Final residual = 7.49066e-07, No Iterations 1
smoothSolver:  Solving for k, Initial residual = 6.35869e-05, Final residual = 5.41231e-06, No Iterations 2
ExecutionTime = 515.062 s  ClockTime = 536 s

forceCoeffs forceCoeffs write:
    Cm    = 0.00154417
    Cd    = 0.054686
    Cl    = 0.00174177
    Cl(f) = 0.00241505
    Cl(r) = -0.000673282

Time = 481s

smoothSolver:  Solving for Ux, Initial residual = 4.94156e-06, Final residual = 4.19286e-07, No Iterations 7
smoothSolver:  Solving for Uy, Initial residual = 0.000267971, Final residual = 2.25092e-05, No Iterations 6
smoothSolver:  Solving for Uz, Initial residual = 0.000117885, Final residual = 1.13651e-05, No Iterations 6
GAMG:  Solving for p, Initial residual = 4.6778e-05, Final residual = 2.27034e-07, No Iterations 4
time step continuity errors : sum local = 4.13563e-08, global = -7.43297e-11, cumulative = 8.32454e-05
smoothSolver:  Solving for omega, Initial residual = 8.61934e-06, Final residual = 7.74684e-07, No Iterations 1
smoothSolver:  Solving for k, Initial residual = 6.33275e-05, Final residual = 5.37077e-06, No Iterations 2
ExecutionTime = 516.408 s  ClockTime = 537 s

forceCoeffs forceCoeffs write:
    Cm    = 0.0015436
    Cd    = 0.0546867
    Cl    = 0.00174153
    Cl(f) = 0.00241436
    Cl(r) = -0.000672836

Time = 482s

smoothSolver:  Solving for Ux, Initial residual = 4.98574e-06, Final residual = 4.22652e-07, No Iterations 7
smoothSolver:  Solving for Uy, Initial residual = 0.000272769, Final residual = 2.30943e-05, No Iterations 6
smoothSolver:  Solving for Uz, Initial residual = 0.000117336, Final residual = 1.13513e-05, No Iterations 6
GAMG:  Solving for p, Initial residual = 4.46522e-05, Final residual = 1.88569e-07, No Iterations 4
time step continuity errors : sum local = 3.43497e-08, global = -2.98586e-10, cumulative = 8.32451e-05
smoothSolver:  Solving for omega, Initial residual = 8.76002e-06, Final residual = 7.94632e-07, No Iterations 1
smoothSolver:  Solving for k, Initial residual = 6.25923e-05, Final residual = 5.27431e-06, No Iterations 2
ExecutionTime = 517.752 s  ClockTime = 539 s

forceCoeffs forceCoeffs write:
    Cm    = 0.00154294
    Cd    = 0.0546879
    Cl    = 0.00174121
    Cl(f) = 0.00241354
    Cl(r) = -0.000672331

Time = 483s

smoothSolver:  Solving for Ux, Initial residual = 4.80421e-06, Final residual = 4.10302e-07, No Iterations 7
smoothSolver:  Solving for Uy, Initial residual = 0.000265197, Final residual = 2.23529e-05, No Iterations 6
smoothSolver:  Solving for Uz, Initial residual = 0.000117421, Final residual = 1.12769e-05, No Iterations 6
GAMG:  Solving for p, Initial residual = 4.25997e-05, Final residual = 1.88888e-07, No Iterations 4
time step continuity errors : sum local = 3.44074e-08, global = -1.87892e-10, cumulative = 8.32449e-05
smoothSolver:  Solving for omega, Initial residual = 8.55382e-06, Final residual = 7.13739e-07, No Iterations 1
smoothSolver:  Solving for k, Initial residual = 6.18184e-05, Final residual = 5.22131e-06, No Iterations 2
ExecutionTime = 519.094 s  ClockTime = 540 s

forceCoeffs forceCoeffs write:
    Cm    = 0.00154495
    Cd    = 0.0546872
    Cl    = 0.00174229
    Cl(f) = 0.00241609
    Cl(r) = -0.000673798

Time = 484s

smoothSolver:  Solving for Ux, Initial residual = 4.7903e-06, Final residual = 4.04148e-07, No Iterations 7
smoothSolver:  Solving for Uy, Initial residual = 0.000247965, Final residual = 2.22029e-05, No Iterations 6
smoothSolver:  Solving for Uz, Initial residual = 0.000113612, Final residual = 1.0752e-05, No Iterations 6
GAMG:  Solving for p, Initial residual = 4.31183e-05, Final residual = 4.09377e-07, No Iterations 3
time step continuity errors : sum local = 7.45722e-08, global = -2.70157e-10, cumulative = 8.32446e-05
smoothSolver:  Solving for omega, Initial residual = 8.90168e-06, Final residual = 7.93809e-07, No Iterations 1
smoothSolver:  Solving for k, Initial residual = 6.14935e-05, Final residual = 5.13767e-06, No Iterations 2
ExecutionTime = 520.478 s  ClockTime = 541 s

forceCoeffs forceCoeffs write:
    Cm    = 0.00154306
    Cd    = 0.054689
    Cl    = 0.00174107
    Cl(f) = 0.0024136
    Cl(r) = -0.000672525

Time = 485s

smoothSolver:  Solving for Ux, Initial residual = 4.6348e-06, Final residual = 3.94957e-07, No Iterations 7
smoothSolver:  Solving for Uy, Initial residual = 0.000252045, Final residual = 2.18682e-05, No Iterations 6
smoothSolver:  Solving for Uz, Initial residual = 0.000112553, Final residual = 1.07222e-05, No Iterations 6
GAMG:  Solving for p, Initial residual = 4.32423e-05, Final residual = 1.80641e-07, No Iterations 4
time step continuity errors : sum local = 3.29058e-08, global = -4.01469e-10, cumulative = 8.32442e-05
smoothSolver:  Solving for omega, Initial residual = 8.97013e-06, Final residual = 8.14311e-07, No Iterations 1
smoothSolver:  Solving for k, Initial residual = 6.05847e-05, Final residual = 5.05856e-06, No Iterations 2
ExecutionTime = 521.828 s  ClockTime = 543 s

forceCoeffs forceCoeffs write:
    Cm    = 0.00154355
    Cd    = 0.054686
    Cl    = 0.00174177
    Cl(f) = 0.00241443
    Cl(r) = -0.000672664

Time = 486s

smoothSolver:  Solving for Ux, Initial residual = 4.72873e-06, Final residual = 4.07665e-07, No Iterations 7
smoothSolver:  Solving for Uy, Initial residual = 0.000257388, Final residual = 2.19938e-05, No Iterations 6
smoothSolver:  Solving for Uz, Initial residual = 0.000114333, Final residual = 1.09887e-05, No Iterations 6
GAMG:  Solving for p, Initial residual = 4.38959e-05, Final residual = 1.91553e-07, No Iterations 4
time step continuity errors : sum local = 3.48937e-08, global = -4.83195e-10, cumulative = 8.32438e-05
smoothSolver:  Solving for omega, Initial residual = 8.7769e-06, Final residual = 7.45161e-07, No Iterations 1
smoothSolver:  Solving for k, Initial residual = 5.98339e-05, Final residual = 5.01305e-06, No Iterations 2
ExecutionTime = 523.18 s  ClockTime = 544 s

forceCoeffs forceCoeffs write:
    Cm    = 0.00154307
    Cd    = 0.0546896
    Cl    = 0.00174186
    Cl(f) = 0.002414
    Cl(r) = -0.000672135

Time = 487s

smoothSolver:  Solving for Ux, Initial residual = 4.80468e-06, Final residual = 4.08356e-07, No Iterations 7
smoothSolver:  Solving for Uy, Initial residual = 0.000253299, Final residual = 2.20239e-05, No Iterations 6
smoothSolver:  Solving for Uz, Initial residual = 0.00011344, Final residual = 1.07354e-05, No Iterations 6
GAMG:  Solving for p, Initial residual = 4.40123e-05, Final residual = 1.96955e-07, No Iterations 4
time step continuity errors : sum local = 3.58776e-08, global = -4.11043e-10, cumulative = 8.32434e-05
smoothSolver:  Solving for omega, Initial residual = 8.64704e-06, Final residual = 7.66446e-07, No Iterations 1
smoothSolver:  Solving for k, Initial residual = 5.90605e-05, Final residual = 4.91596e-06, No Iterations 2
ExecutionTime = 524.588 s  ClockTime = 546 s

forceCoeffs forceCoeffs write:
    Cm    = 0.00154452
    Cd    = 0.0546844
    Cl    = 0.00174152
    Cl(f) = 0.00241528
    Cl(r) = -0.000673759

Time = 488s

smoothSolver:  Solving for Ux, Initial residual = 4.84307e-06, Final residual = 4.14789e-07, No Iterations 7
smoothSolver:  Solving for Uy, Initial residual = 0.000260233, Final residual = 2.21481e-05, No Iterations 6
smoothSolver:  Solving for Uz, Initial residual = 0.00011535, Final residual = 1.11598e-05, No Iterations 6
GAMG:  Solving for p, Initial residual = 4.37633e-05, Final residual = 1.78254e-07, No Iterations 4
time step continuity errors : sum local = 3.24711e-08, global = -6.67231e-11, cumulative = 8.32433e-05
smoothSolver:  Solving for omega, Initial residual = 8.71761e-06, Final residual = 7.85043e-07, No Iterations 1
smoothSolver:  Solving for k, Initial residual = 5.80804e-05, Final residual = 4.84094e-06, No Iterations 2
ExecutionTime = 526.477 s  ClockTime = 548 s

forceCoeffs forceCoeffs write:
    Cm    = 0.00154341
    Cd    = 0.0546897
    Cl    = 0.00174174
    Cl(f) = 0.00241428
    Cl(r) = -0.000672537

Time = 489s

smoothSolver:  Solving for Ux, Initial residual = 4.72275e-06, Final residual = 3.93462e-07, No Iterations 7
smoothSolver:  Solving for Uy, Initial residual = 0.000262337, Final residual = 2.24126e-05, No Iterations 6
smoothSolver:  Solving for Uz, Initial residual = 0.000113842, Final residual = 1.08866e-05, No Iterations 6
GAMG:  Solving for p, Initial residual = 4.48578e-05, Final residual = 1.92647e-07, No Iterations 4
time step continuity errors : sum local = 3.50931e-08, global = 9.19135e-11, cumulative = 8.32434e-05
smoothSolver:  Solving for omega, Initial residual = 8.57609e-06, Final residual = 7.46952e-07, No Iterations 1
smoothSolver:  Solving for k, Initial residual = 5.78141e-05, Final residual = 4.79436e-06, No Iterations 2
ExecutionTime = 528.185 s  ClockTime = 551 s

forceCoeffs forceCoeffs write:
    Cm    = 0.00154361
    Cd    = 0.0546859
    Cl    = 0.0017418
    Cl(f) = 0.00241451
    Cl(r) = -0.000672706

Time = 490s

smoothSolver:  Solving for Ux, Initial residual = 4.8179e-06, Final residual = 4.11426e-07, No Iterations 7
smoothSolver:  Solving for Uy, Initial residual = 0.000259685, Final residual = 2.28661e-05, No Iterations 6
smoothSolver:  Solving for Uz, Initial residual = 0.000114786, Final residual = 1.10165e-05, No Iterations 6
GAMG:  Solving for p, Initial residual = 4.51187e-05, Final residual = 2.06772e-07, No Iterations 4
time step continuity errors : sum local = 3.76668e-08, global = 2.55254e-10, cumulative = 8.32436e-05
smoothSolver:  Solving for omega, Initial residual = 8.7399e-06, Final residual = 7.26337e-07, No Iterations 1
smoothSolver:  Solving for k, Initial residual = 5.71769e-05, Final residual = 4.73434e-06, No Iterations 2
ExecutionTime = 529.596 s  ClockTime = 552 s

forceCoeffs forceCoeffs write:
    Cm    = 0.00154385
    Cd    = 0.0546892
    Cl    = 0.00174127
    Cl(f) = 0.00241448
    Cl(r) = -0.000673213

Time = 491s

smoothSolver:  Solving for Ux, Initial residual = 4.8421e-06, Final residual = 4.12058e-07, No Iterations 7
smoothSolver:  Solving for Uy, Initial residual = 0.000256652, Final residual = 2.28396e-05, No Iterations 6
smoothSolver:  Solving for Uz, Initial residual = 0.000116658, Final residual = 1.14173e-05, No Iterations 6
GAMG:  Solving for p, Initial residual = 4.43998e-05, Final residual = 1.86457e-07, No Iterations 4
time step continuity errors : sum local = 3.39662e-08, global = 2.04796e-10, cumulative = 8.32438e-05
smoothSolver:  Solving for omega, Initial residual = 8.94322e-06, Final residual = 8.02298e-07, No Iterations 1
smoothSolver:  Solving for k, Initial residual = 5.70037e-05, Final residual = 4.65463e-06, No Iterations 2
ExecutionTime = 530.747 s  ClockTime = 553 s

forceCoeffs forceCoeffs write:
    Cm    = 0.00154301
    Cd    = 0.054687
    Cl    = 0.0017415
    Cl(f) = 0.00241377
    Cl(r) = -0.000672263

Time = 492s

smoothSolver:  Solving for Ux, Initial residual = 4.82582e-06, Final residual = 4.10311e-07, No Iterations 7
smoothSolver:  Solving for Uy, Initial residual = 0.000263829, Final residual = 2.25116e-05, No Iterations 6
smoothSolver:  Solving for Uz, Initial residual = 0.000114112, Final residual = 1.08849e-05, No Iterations 6
GAMG:  Solving for p, Initial residual = 4.51034e-05, Final residual = 1.89906e-07, No Iterations 4
time step continuity errors : sum local = 3.45943e-08, global = 2.53872e-10, cumulative = 8.32441e-05
smoothSolver:  Solving for omega, Initial residual = 8.83843e-06, Final residual = 7.74949e-07, No Iterations 1
smoothSolver:  Solving for k, Initial residual = 5.53397e-05, Final residual = 4.54937e-06, No Iterations 2
ExecutionTime = 532.374 s  ClockTime = 555 s

forceCoeffs forceCoeffs write:
    Cm    = 0.00154333
    Cd    = 0.054686
    Cl    = 0.00174165
    Cl(f) = 0.00241416
    Cl(r) = -0.000672507

Time = 493s

smoothSolver:  Solving for Ux, Initial residual = 4.92203e-06, Final residual = 4.09774e-07, No Iterations 7
smoothSolver:  Solving for Uy, Initial residual = 0.000263168, Final residual = 2.22728e-05, No Iterations 6
smoothSolver:  Solving for Uz, Initial residual = 0.000117016, Final residual = 1.11563e-05, No Iterations 6
GAMG:  Solving for p, Initial residual = 4.5477e-05, Final residual = 1.93868e-07, No Iterations 4
time step continuity errors : sum local = 3.53165e-08, global = 4.26877e-10, cumulative = 8.32445e-05
smoothSolver:  Solving for omega, Initial residual = 8.59052e-06, Final residual = 7.57327e-07, No Iterations 1
smoothSolver:  Solving for k, Initial residual = 5.55732e-05, Final residual = 4.52843e-06, No Iterations 2
ExecutionTime = 534.695 s  ClockTime = 557 s

forceCoeffs forceCoeffs write:
    Cm    = 0.00154396
    Cd    = 0.0546872
    Cl    = 0.00174188
    Cl(f) = 0.0024149
    Cl(r) = -0.000673021

Time = 494s

smoothSolver:  Solving for Ux, Initial residual = 5.00342e-06, Final residual = 4.21304e-07, No Iterations 7
smoothSolver:  Solving for Uy, Initial residual = 0.000266816, Final residual = 2.23276e-05, No Iterations 6
smoothSolver:  Solving for Uz, Initial residual = 0.000117456, Final residual = 1.14674e-05, No Iterations 6
GAMG:  Solving for p, Initial residual = 4.54652e-05, Final residual = 2.07527e-07, No Iterations 4
time step continuity errors : sum local = 3.78045e-08, global = 4.96279e-10, cumulative = 8.3245e-05
smoothSolver:  Solving for omega, Initial residual = 9.08131e-06, Final residual = 8.04696e-07, No Iterations 1
smoothSolver:  Solving for k, Initial residual = 5.45394e-05, Final residual = 4.44055e-06, No Iterations 2
ExecutionTime = 539.161 s  ClockTime = 562 s

forceCoeffs forceCoeffs write:
    Cm    = 0.0015438
    Cd    = 0.0546878
    Cl    = 0.00174202
    Cl(f) = 0.00241481
    Cl(r) = -0.000672788

Time = 495s

smoothSolver:  Solving for Ux, Initial residual = 4.87371e-06, Final residual = 4.22073e-07, No Iterations 7
smoothSolver:  Solving for Uy, Initial residual = 0.000274343, Final residual = 2.33463e-05, No Iterations 6
smoothSolver:  Solving for Uz, Initial residual = 0.000120041, Final residual = 1.1557e-05, No Iterations 6
GAMG:  Solving for p, Initial residual = 4.51623e-05, Final residual = 1.95111e-07, No Iterations 4
time step continuity errors : sum local = 3.55429e-08, global = 3.57072e-10, cumulative = 8.32454e-05
smoothSolver:  Solving for omega, Initial residual = 8.73648e-06, Final residual = 7.70058e-07, No Iterations 1
smoothSolver:  Solving for k, Initial residual = 5.37077e-05, Final residual = 4.37694e-06, No Iterations 2
ExecutionTime = 540.576 s  ClockTime = 563 s

forceCoeffs forceCoeffs write:
    Cm    = 0.00154483
    Cd    = 0.0546842
    Cl    = 0.00174242
    Cl(f) = 0.00241603
    Cl(r) = -0.000673616

Time = 496s

smoothSolver:  Solving for Ux, Initial residual = 4.9595e-06, Final residual = 4.28304e-07, No Iterations 7
smoothSolver:  Solving for Uy, Initial residual = 0.00026348, Final residual = 2.27928e-05, No Iterations 6
smoothSolver:  Solving for Uz, Initial residual = 0.000117178, Final residual = 1.12534e-05, No Iterations 6
GAMG:  Solving for p, Initial residual = 4.50068e-05, Final residual = 2.13179e-07, No Iterations 4
time step continuity errors : sum local = 3.88345e-08, global = 9.97889e-11, cumulative = 8.32455e-05
smoothSolver:  Solving for omega, Initial residual = 8.78913e-06, Final residual = 7.65117e-07, No Iterations 1
smoothSolver:  Solving for k, Initial residual = 5.30637e-05, Final residual = 4.31616e-06, No Iterations 2
ExecutionTime = 545.364 s  ClockTime = 568 s

forceCoeffs forceCoeffs write:
    Cm    = 0.00154365
    Cd    = 0.0546866
    Cl    = 0.00174194
    Cl(f) = 0.00241462
    Cl(r) = -0.00067268

Time = 497s

smoothSolver:  Solving for Ux, Initial residual = 4.82735e-06, Final residual = 4.14467e-07, No Iterations 7
smoothSolver:  Solving for Uy, Initial residual = 0.000266513, Final residual = 2.27528e-05, No Iterations 6
smoothSolver:  Solving for Uz, Initial residual = 0.000116755, Final residual = 1.13569e-05, No Iterations 6
GAMG:  Solving for p, Initial residual = 4.59165e-05, Final residual = 1.96916e-07, No Iterations 4
time step continuity errors : sum local = 3.58718e-08, global = -1.55283e-10, cumulative = 8.32453e-05
smoothSolver:  Solving for omega, Initial residual = 8.57496e-06, Final residual = 7.51116e-07, No Iterations 1
smoothSolver:  Solving for k, Initial residual = 5.251e-05, Final residual = 4.23884e-06, No Iterations 2
ExecutionTime = 547.867 s  ClockTime = 570 s

forceCoeffs forceCoeffs write:
    Cm    = 0.00154348
    Cd    = 0.0546849
    Cl    = 0.00174179
    Cl(f) = 0.00241437
    Cl(r) = -0.000672582

Time = 498s

smoothSolver:  Solving for Ux, Initial residual = 4.77799e-06, Final residual = 4.10224e-07, No Iterations 7
smoothSolver:  Solving for Uy, Initial residual = 0.000265157, Final residual = 2.32659e-05, No Iterations 6
smoothSolver:  Solving for Uz, Initial residual = 0.000115898, Final residual = 1.1212e-05, No Iterations 6
GAMG:  Solving for p, Initial residual = 4.50385e-05, Final residual = 1.94105e-07, No Iterations 4
time step continuity errors : sum local = 3.53601e-08, global = -4.36371e-10, cumulative = 8.32449e-05
smoothSolver:  Solving for omega, Initial residual = 8.80998e-06, Final residual = 7.5518e-07, No Iterations 1
smoothSolver:  Solving for k, Initial residual = 5.17811e-05, Final residual = 4.16726e-06, No Iterations 2
ExecutionTime = 549.069 s  ClockTime = 572 s

forceCoeffs forceCoeffs write:
    Cm    = 0.00154394
    Cd    = 0.0546871
    Cl    = 0.00174169
    Cl(f) = 0.00241479
    Cl(r) = -0.000673098

Time = 499s

smoothSolver:  Solving for Ux, Initial residual = 4.7925e-06, Final residual = 4.218e-07, No Iterations 7
smoothSolver:  Solving for Uy, Initial residual = 0.000259713, Final residual = 2.25057e-05, No Iterations 6
smoothSolver:  Solving for Uz, Initial residual = 0.000115692, Final residual = 1.15557e-05, No Iterations 6
GAMG:  Solving for p, Initial residual = 4.34289e-05, Final residual = 1.9475e-07, No Iterations 4
time step continuity errors : sum local = 3.54768e-08, global = -4.87112e-10, cumulative = 8.32444e-05
smoothSolver:  Solving for omega, Initial residual = 8.48323e-06, Final residual = 7.57381e-07, No Iterations 1
smoothSolver:  Solving for k, Initial residual = 5.08851e-05, Final residual = 4.07511e-06, No Iterations 2
ExecutionTime = 550.509 s  ClockTime = 573 s

forceCoeffs forceCoeffs write:
    Cm    = 0.00154358
    Cd    = 0.0546847
    Cl    = 0.00174151
    Cl(f) = 0.00241433
    Cl(r) = -0.000672821

Time = 500s

smoothSolver:  Solving for Ux, Initial residual = 4.8018e-06, Final residual = 4.05291e-07, No Iterations 7
smoothSolver:  Solving for Uy, Initial residual = 0.000245935, Final residual = 2.22554e-05, No Iterations 6
smoothSolver:  Solving for Uz, Initial residual = 0.000113883, Final residual = 1.12982e-05, No Iterations 6
GAMG:  Solving for p, Initial residual = 4.26609e-05, Final residual = 4.13226e-07, No Iterations 3
time step continuity errors : sum local = 7.52768e-08, global = -6.41928e-10, cumulative = 8.32438e-05
smoothSolver:  Solving for omega, Initial residual = 8.78914e-06, Final residual = 7.80106e-07, No Iterations 1
smoothSolver:  Solving for k, Initial residual = 5.09165e-05, Final residual = 4.06829e-06, No Iterations 2
ExecutionTime = 551.902 s  ClockTime = 575 s

streamlines streamlines write:
    Seeded 20 particles
    Sampled 25045 locations

forceCoeffs forceCoeffs write:
    Cm    = 0.0015435
    Cd    = 0.0546902
    Cl    = 0.00174128
    Cl(f) = 0.00241413
    Cl(r) = -0.000672858

End

Finalising parallel run
